
---------- Begin Simulation Statistics ----------
host_inst_rate                               29544634                       # Simulator instruction rate (inst/s)
host_mem_usage                                 389580                       # Number of bytes of host memory used
host_seconds                                     6.28                       # Real time elapsed on the host
host_tick_rate                             2487030767                       # Simulator tick rate (ticks/s)
sim_freq                                 1000000000000                       # Frequency of simulated ticks
sim_insts                                   185588575                       # Number of instructions simulated
sim_seconds                                  0.015623                       # Number of seconds simulated
sim_ticks                                 15623005000                       # Number of ticks simulated
system.cpu00.dcache.LoadLockedReq_accesses::0          364                       # number of LoadLockedReq accesses(hits+misses)
system.cpu00.dcache.LoadLockedReq_accesses::total          364                       # number of LoadLockedReq accesses(hits+misses)
system.cpu00.dcache.LoadLockedReq_avg_miss_latency::0 12829.787234                       # average LoadLockedReq miss latency
system.cpu00.dcache.LoadLockedReq_avg_miss_latency::1          inf                       # average LoadLockedReq miss latency
system.cpu00.dcache.LoadLockedReq_avg_miss_latency::total          inf                       # average LoadLockedReq miss latency
system.cpu00.dcache.LoadLockedReq_avg_mshr_miss_latency  9829.787234                       # average LoadLockedReq mshr miss latency
system.cpu00.dcache.LoadLockedReq_hits::0          317                       # number of LoadLockedReq hits
system.cpu00.dcache.LoadLockedReq_hits::total          317                       # number of LoadLockedReq hits
system.cpu00.dcache.LoadLockedReq_miss_latency       603000                       # number of LoadLockedReq miss cycles
system.cpu00.dcache.LoadLockedReq_miss_rate::0     0.129121                       # miss rate for LoadLockedReq accesses
system.cpu00.dcache.LoadLockedReq_misses::0           47                       # number of LoadLockedReq misses
system.cpu00.dcache.LoadLockedReq_misses::total           47                       # number of LoadLockedReq misses
system.cpu00.dcache.LoadLockedReq_mshr_miss_latency       462000                       # number of LoadLockedReq MSHR miss cycles
system.cpu00.dcache.LoadLockedReq_mshr_miss_rate::0     0.129121                       # mshr miss rate for LoadLockedReq accesses
system.cpu00.dcache.LoadLockedReq_mshr_miss_rate::1          inf                       # mshr miss rate for LoadLockedReq accesses
system.cpu00.dcache.LoadLockedReq_mshr_miss_rate::total          inf                       # mshr miss rate for LoadLockedReq accesses
system.cpu00.dcache.LoadLockedReq_mshr_misses           47                       # number of LoadLockedReq MSHR misses
system.cpu00.dcache.ReadReq_accesses::0         18006                       # number of ReadReq accesses(hits+misses)
system.cpu00.dcache.ReadReq_accesses::total        18006                       # number of ReadReq accesses(hits+misses)
system.cpu00.dcache.ReadReq_avg_miss_latency::0 16176.646707                       # average ReadReq miss latency
system.cpu00.dcache.ReadReq_avg_miss_latency::1          inf                       # average ReadReq miss latency
system.cpu00.dcache.ReadReq_avg_miss_latency::total          inf                       # average ReadReq miss latency
system.cpu00.dcache.ReadReq_avg_mshr_miss_latency 13176.646707                       # average ReadReq mshr miss latency
system.cpu00.dcache.ReadReq_avg_mshr_uncacheable_latency          inf                       # average ReadReq mshr uncacheable latency
system.cpu00.dcache.ReadReq_hits::0             17672                       # number of ReadReq hits
system.cpu00.dcache.ReadReq_hits::total         17672                       # number of ReadReq hits
system.cpu00.dcache.ReadReq_miss_latency      5403000                       # number of ReadReq miss cycles
system.cpu00.dcache.ReadReq_miss_rate::0     0.018549                       # miss rate for ReadReq accesses
system.cpu00.dcache.ReadReq_misses::0             334                       # number of ReadReq misses
system.cpu00.dcache.ReadReq_misses::total          334                       # number of ReadReq misses
system.cpu00.dcache.ReadReq_mshr_miss_latency      4401000                       # number of ReadReq MSHR miss cycles
system.cpu00.dcache.ReadReq_mshr_miss_rate::0     0.018549                       # mshr miss rate for ReadReq accesses
system.cpu00.dcache.ReadReq_mshr_miss_rate::1          inf                       # mshr miss rate for ReadReq accesses
system.cpu00.dcache.ReadReq_mshr_miss_rate::total          inf                       # mshr miss rate for ReadReq accesses
system.cpu00.dcache.ReadReq_mshr_misses           334                       # number of ReadReq MSHR misses
system.cpu00.dcache.ReadReq_mshr_uncacheable_latency     29409500                       # number of ReadReq MSHR uncacheable cycles
system.cpu00.dcache.StoreCondReq_accesses::0          278                       # number of StoreCondReq accesses(hits+misses)
system.cpu00.dcache.StoreCondReq_accesses::total          278                       # number of StoreCondReq accesses(hits+misses)
system.cpu00.dcache.StoreCondReq_avg_miss_latency::0 21964.285714                       # average StoreCondReq miss latency
system.cpu00.dcache.StoreCondReq_avg_miss_latency::1          inf                       # average StoreCondReq miss latency
system.cpu00.dcache.StoreCondReq_avg_miss_latency::total          inf                       # average StoreCondReq miss latency
system.cpu00.dcache.StoreCondReq_avg_mshr_miss_latency        21600                       # average StoreCondReq mshr miss latency
system.cpu00.dcache.StoreCondReq_hits::0          194                       # number of StoreCondReq hits
system.cpu00.dcache.StoreCondReq_hits::total          194                       # number of StoreCondReq hits
system.cpu00.dcache.StoreCondReq_miss_latency      1845000                       # number of StoreCondReq miss cycles
system.cpu00.dcache.StoreCondReq_miss_rate::0     0.302158                       # miss rate for StoreCondReq accesses
system.cpu00.dcache.StoreCondReq_misses::0           84                       # number of StoreCondReq misses
system.cpu00.dcache.StoreCondReq_misses::total           84                       # number of StoreCondReq misses
system.cpu00.dcache.StoreCondReq_mshr_miss_latency      1620000                       # number of StoreCondReq MSHR miss cycles
system.cpu00.dcache.StoreCondReq_mshr_miss_rate::0     0.269784                       # mshr miss rate for StoreCondReq accesses
system.cpu00.dcache.StoreCondReq_mshr_miss_rate::1          inf                       # mshr miss rate for StoreCondReq accesses
system.cpu00.dcache.StoreCondReq_mshr_miss_rate::total          inf                       # mshr miss rate for StoreCondReq accesses
system.cpu00.dcache.StoreCondReq_mshr_misses           75                       # number of StoreCondReq MSHR misses
system.cpu00.dcache.WriteReq_accesses::0         8640                       # number of WriteReq accesses(hits+misses)
system.cpu00.dcache.WriteReq_accesses::total         8640                       # number of WriteReq accesses(hits+misses)
system.cpu00.dcache.WriteReq_avg_miss_latency::0 48843.750000                       # average WriteReq miss latency
system.cpu00.dcache.WriteReq_avg_miss_latency::1          inf                       # average WriteReq miss latency
system.cpu00.dcache.WriteReq_avg_miss_latency::total          inf                       # average WriteReq miss latency
system.cpu00.dcache.WriteReq_avg_mshr_miss_latency 45843.750000                       # average WriteReq mshr miss latency
system.cpu00.dcache.WriteReq_avg_mshr_uncacheable_latency          inf                       # average WriteReq mshr uncacheable latency
system.cpu00.dcache.WriteReq_hits::0             8512                       # number of WriteReq hits
system.cpu00.dcache.WriteReq_hits::total         8512                       # number of WriteReq hits
system.cpu00.dcache.WriteReq_miss_latency      6252000                       # number of WriteReq miss cycles
system.cpu00.dcache.WriteReq_miss_rate::0     0.014815                       # miss rate for WriteReq accesses
system.cpu00.dcache.WriteReq_misses::0            128                       # number of WriteReq misses
system.cpu00.dcache.WriteReq_misses::total          128                       # number of WriteReq misses
system.cpu00.dcache.WriteReq_mshr_miss_latency      5868000                       # number of WriteReq MSHR miss cycles
system.cpu00.dcache.WriteReq_mshr_miss_rate::0     0.014815                       # mshr miss rate for WriteReq accesses
system.cpu00.dcache.WriteReq_mshr_miss_rate::1          inf                       # mshr miss rate for WriteReq accesses
system.cpu00.dcache.WriteReq_mshr_miss_rate::total          inf                       # mshr miss rate for WriteReq accesses
system.cpu00.dcache.WriteReq_mshr_misses          128                       # number of WriteReq MSHR misses
system.cpu00.dcache.WriteReq_mshr_uncacheable_latency     16927500                       # number of WriteReq MSHR uncacheable cycles
system.cpu00.dcache.avg_blocked_cycles::no_mshrs     no_value                       # average number of cycles each access was blocked
system.cpu00.dcache.avg_blocked_cycles::no_targets     no_value                       # average number of cycles each access was blocked
system.cpu00.dcache.avg_refs                31.439024                       # Average number of references to valid blocks.
system.cpu00.dcache.blocked::no_mshrs               0                       # number of cycles access was blocked
system.cpu00.dcache.blocked::no_targets             0                       # number of cycles access was blocked
system.cpu00.dcache.blocked_cycles::no_mshrs            0                       # number of cycles access was blocked
system.cpu00.dcache.blocked_cycles::no_targets            0                       # number of cycles access was blocked
system.cpu00.dcache.cache_copies                    0                       # number of cache copies performed
system.cpu00.dcache.demand_accesses::0          26646                       # number of demand (read+write) accesses
system.cpu00.dcache.demand_accesses::1              0                       # number of demand (read+write) accesses
system.cpu00.dcache.demand_accesses::total        26646                       # number of demand (read+write) accesses
system.cpu00.dcache.demand_avg_miss_latency::0 25227.272727                       # average overall miss latency
system.cpu00.dcache.demand_avg_miss_latency::1          inf                       # average overall miss latency
system.cpu00.dcache.demand_avg_miss_latency::total          inf                       # average overall miss latency
system.cpu00.dcache.demand_avg_mshr_miss_latency 22227.272727                       # average overall mshr miss latency
system.cpu00.dcache.demand_hits::0              26184                       # number of demand (read+write) hits
system.cpu00.dcache.demand_hits::1                  0                       # number of demand (read+write) hits
system.cpu00.dcache.demand_hits::total          26184                       # number of demand (read+write) hits
system.cpu00.dcache.demand_miss_latency      11655000                       # number of demand (read+write) miss cycles
system.cpu00.dcache.demand_miss_rate::0      0.017338                       # miss rate for demand accesses
system.cpu00.dcache.demand_miss_rate::1      no_value                       # miss rate for demand accesses
system.cpu00.dcache.demand_miss_rate::total     no_value                       # miss rate for demand accesses
system.cpu00.dcache.demand_misses::0              462                       # number of demand (read+write) misses
system.cpu00.dcache.demand_misses::1                0                       # number of demand (read+write) misses
system.cpu00.dcache.demand_misses::total          462                       # number of demand (read+write) misses
system.cpu00.dcache.demand_mshr_hits                0                       # number of demand (read+write) MSHR hits
system.cpu00.dcache.demand_mshr_miss_latency     10269000                       # number of demand (read+write) MSHR miss cycles
system.cpu00.dcache.demand_mshr_miss_rate::0     0.017338                       # mshr miss rate for demand accesses
system.cpu00.dcache.demand_mshr_miss_rate::1          inf                       # mshr miss rate for demand accesses
system.cpu00.dcache.demand_mshr_miss_rate::total          inf                       # mshr miss rate for demand accesses
system.cpu00.dcache.demand_mshr_misses            462                       # number of demand (read+write) MSHR misses
system.cpu00.dcache.fast_writes                     0                       # number of fast writes performed
system.cpu00.dcache.mshr_cap_events                 0                       # number of times MSHR cap was activated
system.cpu00.dcache.no_allocate_misses              0                       # Number of misses that were no-allocate
system.cpu00.dcache.occ_%::0                 0.817591                       # Average percentage of cache occupancy
system.cpu00.dcache.occ_%::1                -0.002930                       # Average percentage of cache occupancy
system.cpu00.dcache.occ_blocks::0          837.213353                       # Average occupied blocks per context
system.cpu00.dcache.occ_blocks::1                  -3                       # Average occupied blocks per context
system.cpu00.dcache.overall_accesses::0         26646                       # number of overall (read+write) accesses
system.cpu00.dcache.overall_accesses::1             0                       # number of overall (read+write) accesses
system.cpu00.dcache.overall_accesses::total        26646                       # number of overall (read+write) accesses
system.cpu00.dcache.overall_avg_miss_latency::0 25227.272727                       # average overall miss latency
system.cpu00.dcache.overall_avg_miss_latency::1          inf                       # average overall miss latency
system.cpu00.dcache.overall_avg_miss_latency::total          inf                       # average overall miss latency
system.cpu00.dcache.overall_avg_mshr_miss_latency 22227.272727                       # average overall mshr miss latency
system.cpu00.dcache.overall_avg_mshr_uncacheable_latency          inf                       # average overall mshr uncacheable latency
system.cpu00.dcache.overall_hits::0             26184                       # number of overall hits
system.cpu00.dcache.overall_hits::1                 0                       # number of overall hits
system.cpu00.dcache.overall_hits::total         26184                       # number of overall hits
system.cpu00.dcache.overall_miss_latency     11655000                       # number of overall miss cycles
system.cpu00.dcache.overall_miss_rate::0     0.017338                       # miss rate for overall accesses
system.cpu00.dcache.overall_miss_rate::1     no_value                       # miss rate for overall accesses
system.cpu00.dcache.overall_miss_rate::total     no_value                       # miss rate for overall accesses
system.cpu00.dcache.overall_misses::0             462                       # number of overall misses
system.cpu00.dcache.overall_misses::1               0                       # number of overall misses
system.cpu00.dcache.overall_misses::total          462                       # number of overall misses
system.cpu00.dcache.overall_mshr_hits               0                       # number of overall MSHR hits
system.cpu00.dcache.overall_mshr_miss_latency     10269000                       # number of overall MSHR miss cycles
system.cpu00.dcache.overall_mshr_miss_rate::0     0.017338                       # mshr miss rate for overall accesses
system.cpu00.dcache.overall_mshr_miss_rate::1          inf                       # mshr miss rate for overall accesses
system.cpu00.dcache.overall_mshr_miss_rate::total          inf                       # mshr miss rate for overall accesses
system.cpu00.dcache.overall_mshr_misses           462                       # number of overall MSHR misses
system.cpu00.dcache.overall_mshr_uncacheable_latency     46337000                       # number of overall MSHR uncacheable cycles
system.cpu00.dcache.overall_mshr_uncacheable_misses            0                       # number of overall MSHR uncacheable misses
system.cpu00.dcache.replacements                  123                       # number of replacements
system.cpu00.dcache.sampled_refs                  123                       # Sample count of references to valid blocks.
system.cpu00.dcache.soft_prefetch_mshr_full            0                       # number of mshr full events for SW prefetching instrutions
system.cpu00.dcache.tagsinuse              834.213353                       # Cycle average of tags in use
system.cpu00.dcache.total_refs                   3867                       # Total number of references to valid blocks.
system.cpu00.dcache.warmup_cycle                    0                       # Cycle when the warmup percentage was hit.
system.cpu00.dcache.writebacks                     26                       # number of writebacks
system.cpu00.dtb.data_accesses                      0                       # DTB accesses
system.cpu00.dtb.data_acv                           0                       # DTB access violations
system.cpu00.dtb.data_hits                      27639                       # DTB hits
system.cpu00.dtb.data_misses                        0                       # DTB misses
system.cpu00.dtb.fetch_accesses                     0                       # ITB accesses
system.cpu00.dtb.fetch_acv                          0                       # ITB acv
system.cpu00.dtb.fetch_hits                         0                       # ITB hits
system.cpu00.dtb.fetch_misses                       0                       # ITB misses
system.cpu00.dtb.read_accesses                      0                       # DTB read accesses
system.cpu00.dtb.read_acv                           0                       # DTB read access violations
system.cpu00.dtb.read_hits                      18597                       # DTB read hits
system.cpu00.dtb.read_misses                        0                       # DTB read misses
system.cpu00.dtb.write_accesses                     0                       # DTB write accesses
system.cpu00.dtb.write_acv                          0                       # DTB write access violations
system.cpu00.dtb.write_hits                      9042                       # DTB write hits
system.cpu00.dtb.write_misses                       0                       # DTB write misses
system.cpu00.icache.ReadReq_accesses::0         89990                       # number of ReadReq accesses(hits+misses)
system.cpu00.icache.ReadReq_accesses::total        89990                       # number of ReadReq accesses(hits+misses)
system.cpu00.icache.ReadReq_avg_miss_latency::0 17472.440945                       # average ReadReq miss latency
system.cpu00.icache.ReadReq_avg_miss_latency::1          inf                       # average ReadReq miss latency
system.cpu00.icache.ReadReq_avg_miss_latency::total          inf                       # average ReadReq miss latency
system.cpu00.icache.ReadReq_avg_mshr_miss_latency 14472.440945                       # average ReadReq mshr miss latency
system.cpu00.icache.ReadReq_hits::0             89736                       # number of ReadReq hits
system.cpu00.icache.ReadReq_hits::total         89736                       # number of ReadReq hits
system.cpu00.icache.ReadReq_miss_latency      4438000                       # number of ReadReq miss cycles
system.cpu00.icache.ReadReq_miss_rate::0     0.002823                       # miss rate for ReadReq accesses
system.cpu00.icache.ReadReq_misses::0             254                       # number of ReadReq misses
system.cpu00.icache.ReadReq_misses::total          254                       # number of ReadReq misses
system.cpu00.icache.ReadReq_mshr_miss_latency      3676000                       # number of ReadReq MSHR miss cycles
system.cpu00.icache.ReadReq_mshr_miss_rate::0     0.002823                       # mshr miss rate for ReadReq accesses
system.cpu00.icache.ReadReq_mshr_miss_rate::1          inf                       # mshr miss rate for ReadReq accesses
system.cpu00.icache.ReadReq_mshr_miss_rate::total          inf                       # mshr miss rate for ReadReq accesses
system.cpu00.icache.ReadReq_mshr_misses           254                       # number of ReadReq MSHR misses
system.cpu00.icache.avg_blocked_cycles::no_mshrs     no_value                       # average number of cycles each access was blocked
system.cpu00.icache.avg_blocked_cycles::no_targets     no_value                       # average number of cycles each access was blocked
system.cpu00.icache.avg_refs                68.921260                       # Average number of references to valid blocks.
system.cpu00.icache.blocked::no_mshrs               0                       # number of cycles access was blocked
system.cpu00.icache.blocked::no_targets             0                       # number of cycles access was blocked
system.cpu00.icache.blocked_cycles::no_mshrs            0                       # number of cycles access was blocked
system.cpu00.icache.blocked_cycles::no_targets            0                       # number of cycles access was blocked
system.cpu00.icache.cache_copies                    0                       # number of cache copies performed
system.cpu00.icache.demand_accesses::0          89990                       # number of demand (read+write) accesses
system.cpu00.icache.demand_accesses::1              0                       # number of demand (read+write) accesses
system.cpu00.icache.demand_accesses::total        89990                       # number of demand (read+write) accesses
system.cpu00.icache.demand_avg_miss_latency::0 17472.440945                       # average overall miss latency
system.cpu00.icache.demand_avg_miss_latency::1          inf                       # average overall miss latency
system.cpu00.icache.demand_avg_miss_latency::total          inf                       # average overall miss latency
system.cpu00.icache.demand_avg_mshr_miss_latency 14472.440945                       # average overall mshr miss latency
system.cpu00.icache.demand_hits::0              89736                       # number of demand (read+write) hits
system.cpu00.icache.demand_hits::1                  0                       # number of demand (read+write) hits
system.cpu00.icache.demand_hits::total          89736                       # number of demand (read+write) hits
system.cpu00.icache.demand_miss_latency       4438000                       # number of demand (read+write) miss cycles
system.cpu00.icache.demand_miss_rate::0      0.002823                       # miss rate for demand accesses
system.cpu00.icache.demand_miss_rate::1      no_value                       # miss rate for demand accesses
system.cpu00.icache.demand_miss_rate::total     no_value                       # miss rate for demand accesses
system.cpu00.icache.demand_misses::0              254                       # number of demand (read+write) misses
system.cpu00.icache.demand_misses::1                0                       # number of demand (read+write) misses
system.cpu00.icache.demand_misses::total          254                       # number of demand (read+write) misses
system.cpu00.icache.demand_mshr_hits                0                       # number of demand (read+write) MSHR hits
system.cpu00.icache.demand_mshr_miss_latency      3676000                       # number of demand (read+write) MSHR miss cycles
system.cpu00.icache.demand_mshr_miss_rate::0     0.002823                       # mshr miss rate for demand accesses
system.cpu00.icache.demand_mshr_miss_rate::1          inf                       # mshr miss rate for demand accesses
system.cpu00.icache.demand_mshr_miss_rate::total          inf                       # mshr miss rate for demand accesses
system.cpu00.icache.demand_mshr_misses            254                       # number of demand (read+write) MSHR misses
system.cpu00.icache.fast_writes                     0                       # number of fast writes performed
system.cpu00.icache.mshr_cap_events                 0                       # number of times MSHR cap was activated
system.cpu00.icache.no_allocate_misses              0                       # Number of misses that were no-allocate
system.cpu00.icache.occ_%::0                        1                       # Average percentage of cache occupancy
system.cpu00.icache.occ_blocks::0                 512                       # Average occupied blocks per context
system.cpu00.icache.overall_accesses::0         89990                       # number of overall (read+write) accesses
system.cpu00.icache.overall_accesses::1             0                       # number of overall (read+write) accesses
system.cpu00.icache.overall_accesses::total        89990                       # number of overall (read+write) accesses
system.cpu00.icache.overall_avg_miss_latency::0 17472.440945                       # average overall miss latency
system.cpu00.icache.overall_avg_miss_latency::1          inf                       # average overall miss latency
system.cpu00.icache.overall_avg_miss_latency::total          inf                       # average overall miss latency
system.cpu00.icache.overall_avg_mshr_miss_latency 14472.440945                       # average overall mshr miss latency
system.cpu00.icache.overall_avg_mshr_uncacheable_latency     no_value                       # average overall mshr uncacheable latency
system.cpu00.icache.overall_hits::0             89736                       # number of overall hits
system.cpu00.icache.overall_hits::1                 0                       # number of overall hits
system.cpu00.icache.overall_hits::total         89736                       # number of overall hits
system.cpu00.icache.overall_miss_latency      4438000                       # number of overall miss cycles
system.cpu00.icache.overall_miss_rate::0     0.002823                       # miss rate for overall accesses
system.cpu00.icache.overall_miss_rate::1     no_value                       # miss rate for overall accesses
system.cpu00.icache.overall_miss_rate::total     no_value                       # miss rate for overall accesses
system.cpu00.icache.overall_misses::0             254                       # number of overall misses
system.cpu00.icache.overall_misses::1               0                       # number of overall misses
system.cpu00.icache.overall_misses::total          254                       # number of overall misses
system.cpu00.icache.overall_mshr_hits               0                       # number of overall MSHR hits
system.cpu00.icache.overall_mshr_miss_latency      3676000                       # number of overall MSHR miss cycles
system.cpu00.icache.overall_mshr_miss_rate::0     0.002823                       # mshr miss rate for overall accesses
system.cpu00.icache.overall_mshr_miss_rate::1          inf                       # mshr miss rate for overall accesses
system.cpu00.icache.overall_mshr_miss_rate::total          inf                       # mshr miss rate for overall accesses
system.cpu00.icache.overall_mshr_misses           254                       # number of overall MSHR misses
system.cpu00.icache.overall_mshr_uncacheable_latency            0                       # number of overall MSHR uncacheable cycles
system.cpu00.icache.overall_mshr_uncacheable_misses            0                       # number of overall MSHR uncacheable misses
system.cpu00.icache.replacements                  254                       # number of replacements
system.cpu00.icache.sampled_refs                  254                       # Sample count of references to valid blocks.
system.cpu00.icache.soft_prefetch_mshr_full            0                       # number of mshr full events for SW prefetching instrutions
system.cpu00.icache.tagsinuse                     512                       # Cycle average of tags in use
system.cpu00.icache.total_refs                  17506                       # Total number of references to valid blocks.
system.cpu00.icache.warmup_cycle                    0                       # Cycle when the warmup percentage was hit.
system.cpu00.icache.writebacks                      0                       # number of writebacks
system.cpu00.idle_fraction                   0.988332                       # Percentage of idle cycles
system.cpu00.itb.data_accesses                      0                       # DTB accesses
system.cpu00.itb.data_acv                           0                       # DTB access violations
system.cpu00.itb.data_hits                          0                       # DTB hits
system.cpu00.itb.data_misses                        0                       # DTB misses
system.cpu00.itb.fetch_accesses                  6906                       # ITB accesses
system.cpu00.itb.fetch_acv                          0                       # ITB acv
system.cpu00.itb.fetch_hits                      6906                       # ITB hits
system.cpu00.itb.fetch_misses                       0                       # ITB misses
system.cpu00.itb.read_accesses                      0                       # DTB read accesses
system.cpu00.itb.read_acv                           0                       # DTB read access violations
system.cpu00.itb.read_hits                          0                       # DTB read hits
system.cpu00.itb.read_misses                        0                       # DTB read misses
system.cpu00.itb.write_accesses                     0                       # DTB write accesses
system.cpu00.itb.write_acv                          0                       # DTB write access violations
system.cpu00.itb.write_hits                         0                       # DTB write hits
system.cpu00.itb.write_misses                       0                       # DTB write misses
system.cpu00.kern.callpal::swpipl                 477     87.68%     87.68% # number of callpals executed
system.cpu00.kern.callpal::rdps                    37      6.80%     94.49% # number of callpals executed
system.cpu00.kern.callpal::rti                     30      5.51%    100.00% # number of callpals executed
system.cpu00.kern.callpal::total                  544                       # number of callpals executed
system.cpu00.kern.inst.arm                          0                       # number of arm instructions executed
system.cpu00.kern.inst.hwrei                      574                       # number of hwrei instructions executed
system.cpu00.kern.inst.quiesce                     30                       # number of quiesce instructions executed
system.cpu00.kern.ipl_count::0                    172     32.03%     32.03% # number of times we switched to this ipl
system.cpu00.kern.ipl_count::21                     5      0.93%     32.96% # number of times we switched to this ipl
system.cpu00.kern.ipl_count::22                    16      2.98%     35.94% # number of times we switched to this ipl
system.cpu00.kern.ipl_count::30                     9      1.68%     37.62% # number of times we switched to this ipl
system.cpu00.kern.ipl_count::31                   335     62.38%    100.00% # number of times we switched to this ipl
system.cpu00.kern.ipl_count::total                537                       # number of times we switched to this ipl
system.cpu00.kern.ipl_good::0                     172     47.12%     47.12% # number of times we switched to this ipl from a different ipl
system.cpu00.kern.ipl_good::21                      5      1.37%     48.49% # number of times we switched to this ipl from a different ipl
system.cpu00.kern.ipl_good::22                     16      4.38%     52.88% # number of times we switched to this ipl from a different ipl
system.cpu00.kern.ipl_good::30                      9      2.47%     55.34% # number of times we switched to this ipl from a different ipl
system.cpu00.kern.ipl_good::31                    163     44.66%    100.00% # number of times we switched to this ipl from a different ipl
system.cpu00.kern.ipl_good::total                 365                       # number of times we switched to this ipl from a different ipl
system.cpu00.kern.ipl_ticks::0            15494082000     99.16%     99.16% # number of cycles we spent at this ipl
system.cpu00.kern.ipl_ticks::21               2348500      0.02%     99.18% # number of cycles we spent at this ipl
system.cpu00.kern.ipl_ticks::22               6447000      0.04%     99.22% # number of cycles we spent at this ipl
system.cpu00.kern.ipl_ticks::30               5763500      0.04%     99.25% # number of cycles we spent at this ipl
system.cpu00.kern.ipl_ticks::31             116494000      0.75%    100.00% # number of cycles we spent at this ipl
system.cpu00.kern.ipl_ticks::total        15625135000                       # number of cycles we spent at this ipl
system.cpu00.kern.ipl_used::0                       1                       # fraction of swpipl calls that actually changed the ipl
system.cpu00.kern.ipl_used::21                      1                       # fraction of swpipl calls that actually changed the ipl
system.cpu00.kern.ipl_used::22                      1                       # fraction of swpipl calls that actually changed the ipl
system.cpu00.kern.ipl_used::30                      1                       # fraction of swpipl calls that actually changed the ipl
system.cpu00.kern.ipl_used::31               0.486567                       # fraction of swpipl calls that actually changed the ipl
system.cpu00.kern.mode_good::kernel                 0                      
system.cpu00.kern.mode_good::user                   0                      
system.cpu00.kern.mode_good::idle                   0                      
system.cpu00.kern.mode_switch::kernel              30                       # number of protection mode switches
system.cpu00.kern.mode_switch::user                 0                       # number of protection mode switches
system.cpu00.kern.mode_switch::idle                 0                       # number of protection mode switches
system.cpu00.kern.mode_switch_good::kernel            0                       # fraction of useful protection mode switches
system.cpu00.kern.mode_switch_good::user     no_value                       # fraction of useful protection mode switches
system.cpu00.kern.mode_switch_good::idle     no_value                       # fraction of useful protection mode switches
system.cpu00.kern.mode_switch_good::total     no_value                       # fraction of useful protection mode switches
system.cpu00.kern.mode_ticks::kernel                0                       # number of ticks spent at the given mode
system.cpu00.kern.mode_ticks::user                  0                       # number of ticks spent at the given mode
system.cpu00.kern.mode_ticks::idle                  0                       # number of ticks spent at the given mode
system.cpu00.kern.swap_context                      0                       # number of times the context was actually changed
system.cpu00.not_idle_fraction               0.011668                       # Percentage of non-idle cycles
system.cpu00.numCycles                       31250270                       # number of cpu cycles simulated
system.cpu00.num_insts                          89990                       # Number of instructions executed
system.cpu00.num_refs                           27692                       # Number of memory references
system.cpu01.dcache.LoadLockedReq_accesses::0          139                       # number of LoadLockedReq accesses(hits+misses)
system.cpu01.dcache.LoadLockedReq_accesses::total          139                       # number of LoadLockedReq accesses(hits+misses)
system.cpu01.dcache.LoadLockedReq_avg_miss_latency::0        20150                       # average LoadLockedReq miss latency
system.cpu01.dcache.LoadLockedReq_avg_miss_latency::1          inf                       # average LoadLockedReq miss latency
system.cpu01.dcache.LoadLockedReq_avg_miss_latency::total          inf                       # average LoadLockedReq miss latency
system.cpu01.dcache.LoadLockedReq_avg_mshr_miss_latency        17150                       # average LoadLockedReq mshr miss latency
system.cpu01.dcache.LoadLockedReq_hits::0           99                       # number of LoadLockedReq hits
system.cpu01.dcache.LoadLockedReq_hits::total           99                       # number of LoadLockedReq hits
system.cpu01.dcache.LoadLockedReq_miss_latency       806000                       # number of LoadLockedReq miss cycles
system.cpu01.dcache.LoadLockedReq_miss_rate::0     0.287770                       # miss rate for LoadLockedReq accesses
system.cpu01.dcache.LoadLockedReq_misses::0           40                       # number of LoadLockedReq misses
system.cpu01.dcache.LoadLockedReq_misses::total           40                       # number of LoadLockedReq misses
system.cpu01.dcache.LoadLockedReq_mshr_miss_latency       686000                       # number of LoadLockedReq MSHR miss cycles
system.cpu01.dcache.LoadLockedReq_mshr_miss_rate::0     0.287770                       # mshr miss rate for LoadLockedReq accesses
system.cpu01.dcache.LoadLockedReq_mshr_miss_rate::1          inf                       # mshr miss rate for LoadLockedReq accesses
system.cpu01.dcache.LoadLockedReq_mshr_miss_rate::total          inf                       # mshr miss rate for LoadLockedReq accesses
system.cpu01.dcache.LoadLockedReq_mshr_misses           40                       # number of LoadLockedReq MSHR misses
system.cpu01.dcache.ReadReq_accesses::0          8683                       # number of ReadReq accesses(hits+misses)
system.cpu01.dcache.ReadReq_accesses::total         8683                       # number of ReadReq accesses(hits+misses)
system.cpu01.dcache.ReadReq_avg_miss_latency::0 20341.176471                       # average ReadReq miss latency
system.cpu01.dcache.ReadReq_avg_miss_latency::1          inf                       # average ReadReq miss latency
system.cpu01.dcache.ReadReq_avg_miss_latency::total          inf                       # average ReadReq miss latency
system.cpu01.dcache.ReadReq_avg_mshr_miss_latency 17341.176471                       # average ReadReq mshr miss latency
system.cpu01.dcache.ReadReq_hits::0              8343                       # number of ReadReq hits
system.cpu01.dcache.ReadReq_hits::total          8343                       # number of ReadReq hits
system.cpu01.dcache.ReadReq_miss_latency      6916000                       # number of ReadReq miss cycles
system.cpu01.dcache.ReadReq_miss_rate::0     0.039157                       # miss rate for ReadReq accesses
system.cpu01.dcache.ReadReq_misses::0             340                       # number of ReadReq misses
system.cpu01.dcache.ReadReq_misses::total          340                       # number of ReadReq misses
system.cpu01.dcache.ReadReq_mshr_miss_latency      5896000                       # number of ReadReq MSHR miss cycles
system.cpu01.dcache.ReadReq_mshr_miss_rate::0     0.039157                       # mshr miss rate for ReadReq accesses
system.cpu01.dcache.ReadReq_mshr_miss_rate::1          inf                       # mshr miss rate for ReadReq accesses
system.cpu01.dcache.ReadReq_mshr_miss_rate::total          inf                       # mshr miss rate for ReadReq accesses
system.cpu01.dcache.ReadReq_mshr_misses           340                       # number of ReadReq MSHR misses
system.cpu01.dcache.StoreCondReq_accesses::0          116                       # number of StoreCondReq accesses(hits+misses)
system.cpu01.dcache.StoreCondReq_accesses::total          116                       # number of StoreCondReq accesses(hits+misses)
system.cpu01.dcache.StoreCondReq_avg_miss_latency::0 15789.473684                       # average StoreCondReq miss latency
system.cpu01.dcache.StoreCondReq_avg_miss_latency::1          inf                       # average StoreCondReq miss latency
system.cpu01.dcache.StoreCondReq_avg_miss_latency::total          inf                       # average StoreCondReq miss latency
system.cpu01.dcache.StoreCondReq_avg_mshr_miss_latency 17930.232558                       # average StoreCondReq mshr miss latency
system.cpu01.dcache.StoreCondReq_hits::0           59                       # number of StoreCondReq hits
system.cpu01.dcache.StoreCondReq_hits::total           59                       # number of StoreCondReq hits
system.cpu01.dcache.StoreCondReq_miss_latency       900000                       # number of StoreCondReq miss cycles
system.cpu01.dcache.StoreCondReq_miss_rate::0     0.491379                       # miss rate for StoreCondReq accesses
system.cpu01.dcache.StoreCondReq_misses::0           57                       # number of StoreCondReq misses
system.cpu01.dcache.StoreCondReq_misses::total           57                       # number of StoreCondReq misses
system.cpu01.dcache.StoreCondReq_mshr_miss_latency       771000                       # number of StoreCondReq MSHR miss cycles
system.cpu01.dcache.StoreCondReq_mshr_miss_rate::0     0.370690                       # mshr miss rate for StoreCondReq accesses
system.cpu01.dcache.StoreCondReq_mshr_miss_rate::1          inf                       # mshr miss rate for StoreCondReq accesses
system.cpu01.dcache.StoreCondReq_mshr_miss_rate::total          inf                       # mshr miss rate for StoreCondReq accesses
system.cpu01.dcache.StoreCondReq_mshr_misses           43                       # number of StoreCondReq MSHR misses
system.cpu01.dcache.WriteReq_accesses::0         4021                       # number of WriteReq accesses(hits+misses)
system.cpu01.dcache.WriteReq_accesses::total         4021                       # number of WriteReq accesses(hits+misses)
system.cpu01.dcache.WriteReq_avg_miss_latency::0 55314.285714                       # average WriteReq miss latency
system.cpu01.dcache.WriteReq_avg_miss_latency::1          inf                       # average WriteReq miss latency
system.cpu01.dcache.WriteReq_avg_miss_latency::total          inf                       # average WriteReq miss latency
system.cpu01.dcache.WriteReq_avg_mshr_miss_latency 52314.285714                       # average WriteReq mshr miss latency
system.cpu01.dcache.WriteReq_avg_mshr_uncacheable_latency          inf                       # average WriteReq mshr uncacheable latency
system.cpu01.dcache.WriteReq_hits::0             3986                       # number of WriteReq hits
system.cpu01.dcache.WriteReq_hits::total         3986                       # number of WriteReq hits
system.cpu01.dcache.WriteReq_miss_latency      1936000                       # number of WriteReq miss cycles
system.cpu01.dcache.WriteReq_miss_rate::0     0.008704                       # miss rate for WriteReq accesses
system.cpu01.dcache.WriteReq_misses::0             35                       # number of WriteReq misses
system.cpu01.dcache.WriteReq_misses::total           35                       # number of WriteReq misses
system.cpu01.dcache.WriteReq_mshr_miss_latency      1831000                       # number of WriteReq MSHR miss cycles
system.cpu01.dcache.WriteReq_mshr_miss_rate::0     0.008704                       # mshr miss rate for WriteReq accesses
system.cpu01.dcache.WriteReq_mshr_miss_rate::1          inf                       # mshr miss rate for WriteReq accesses
system.cpu01.dcache.WriteReq_mshr_miss_rate::total          inf                       # mshr miss rate for WriteReq accesses
system.cpu01.dcache.WriteReq_mshr_misses           35                       # number of WriteReq MSHR misses
system.cpu01.dcache.WriteReq_mshr_uncacheable_latency      5213500                       # number of WriteReq MSHR uncacheable cycles
system.cpu01.dcache.avg_blocked_cycles::no_mshrs     no_value                       # average number of cycles each access was blocked
system.cpu01.dcache.avg_blocked_cycles::no_targets     no_value                       # average number of cycles each access was blocked
system.cpu01.dcache.avg_refs                13.009901                       # Average number of references to valid blocks.
system.cpu01.dcache.blocked::no_mshrs               0                       # number of cycles access was blocked
system.cpu01.dcache.blocked::no_targets             0                       # number of cycles access was blocked
system.cpu01.dcache.blocked_cycles::no_mshrs            0                       # number of cycles access was blocked
system.cpu01.dcache.blocked_cycles::no_targets            0                       # number of cycles access was blocked
system.cpu01.dcache.cache_copies                    0                       # number of cache copies performed
system.cpu01.dcache.demand_accesses::0          12704                       # number of demand (read+write) accesses
system.cpu01.dcache.demand_accesses::1              0                       # number of demand (read+write) accesses
system.cpu01.dcache.demand_accesses::total        12704                       # number of demand (read+write) accesses
system.cpu01.dcache.demand_avg_miss_latency::0 23605.333333                       # average overall miss latency
system.cpu01.dcache.demand_avg_miss_latency::1          inf                       # average overall miss latency
system.cpu01.dcache.demand_avg_miss_latency::total          inf                       # average overall miss latency
system.cpu01.dcache.demand_avg_mshr_miss_latency 20605.333333                       # average overall mshr miss latency
system.cpu01.dcache.demand_hits::0              12329                       # number of demand (read+write) hits
system.cpu01.dcache.demand_hits::1                  0                       # number of demand (read+write) hits
system.cpu01.dcache.demand_hits::total          12329                       # number of demand (read+write) hits
system.cpu01.dcache.demand_miss_latency       8852000                       # number of demand (read+write) miss cycles
system.cpu01.dcache.demand_miss_rate::0      0.029518                       # miss rate for demand accesses
system.cpu01.dcache.demand_miss_rate::1      no_value                       # miss rate for demand accesses
system.cpu01.dcache.demand_miss_rate::total     no_value                       # miss rate for demand accesses
system.cpu01.dcache.demand_misses::0              375                       # number of demand (read+write) misses
system.cpu01.dcache.demand_misses::1                0                       # number of demand (read+write) misses
system.cpu01.dcache.demand_misses::total          375                       # number of demand (read+write) misses
system.cpu01.dcache.demand_mshr_hits                0                       # number of demand (read+write) MSHR hits
system.cpu01.dcache.demand_mshr_miss_latency      7727000                       # number of demand (read+write) MSHR miss cycles
system.cpu01.dcache.demand_mshr_miss_rate::0     0.029518                       # mshr miss rate for demand accesses
system.cpu01.dcache.demand_mshr_miss_rate::1          inf                       # mshr miss rate for demand accesses
system.cpu01.dcache.demand_mshr_miss_rate::total          inf                       # mshr miss rate for demand accesses
system.cpu01.dcache.demand_mshr_misses            375                       # number of demand (read+write) MSHR misses
system.cpu01.dcache.fast_writes                     0                       # number of fast writes performed
system.cpu01.dcache.mshr_cap_events                 0                       # number of times MSHR cap was activated
system.cpu01.dcache.no_allocate_misses              0                       # Number of misses that were no-allocate
system.cpu01.dcache.occ_%::0                 0.450892                       # Average percentage of cache occupancy
system.cpu01.dcache.occ_%::1                -0.000694                       # Average percentage of cache occupancy
system.cpu01.dcache.occ_blocks::0          461.713343                       # Average occupied blocks per context
system.cpu01.dcache.occ_blocks::1           -0.710230                       # Average occupied blocks per context
system.cpu01.dcache.overall_accesses::0         12704                       # number of overall (read+write) accesses
system.cpu01.dcache.overall_accesses::1             0                       # number of overall (read+write) accesses
system.cpu01.dcache.overall_accesses::total        12704                       # number of overall (read+write) accesses
system.cpu01.dcache.overall_avg_miss_latency::0 23605.333333                       # average overall miss latency
system.cpu01.dcache.overall_avg_miss_latency::1          inf                       # average overall miss latency
system.cpu01.dcache.overall_avg_miss_latency::total          inf                       # average overall miss latency
system.cpu01.dcache.overall_avg_mshr_miss_latency 20605.333333                       # average overall mshr miss latency
system.cpu01.dcache.overall_avg_mshr_uncacheable_latency          inf                       # average overall mshr uncacheable latency
system.cpu01.dcache.overall_hits::0             12329                       # number of overall hits
system.cpu01.dcache.overall_hits::1                 0                       # number of overall hits
system.cpu01.dcache.overall_hits::total         12329                       # number of overall hits
system.cpu01.dcache.overall_miss_latency      8852000                       # number of overall miss cycles
system.cpu01.dcache.overall_miss_rate::0     0.029518                       # miss rate for overall accesses
system.cpu01.dcache.overall_miss_rate::1     no_value                       # miss rate for overall accesses
system.cpu01.dcache.overall_miss_rate::total     no_value                       # miss rate for overall accesses
system.cpu01.dcache.overall_misses::0             375                       # number of overall misses
system.cpu01.dcache.overall_misses::1               0                       # number of overall misses
system.cpu01.dcache.overall_misses::total          375                       # number of overall misses
system.cpu01.dcache.overall_mshr_hits               0                       # number of overall MSHR hits
system.cpu01.dcache.overall_mshr_miss_latency      7727000                       # number of overall MSHR miss cycles
system.cpu01.dcache.overall_mshr_miss_rate::0     0.029518                       # mshr miss rate for overall accesses
system.cpu01.dcache.overall_mshr_miss_rate::1          inf                       # mshr miss rate for overall accesses
system.cpu01.dcache.overall_mshr_miss_rate::total          inf                       # mshr miss rate for overall accesses
system.cpu01.dcache.overall_mshr_misses           375                       # number of overall MSHR misses
system.cpu01.dcache.overall_mshr_uncacheable_latency      5213500                       # number of overall MSHR uncacheable cycles
system.cpu01.dcache.overall_mshr_uncacheable_misses            0                       # number of overall MSHR uncacheable misses
system.cpu01.dcache.replacements                  101                       # number of replacements
system.cpu01.dcache.sampled_refs                  101                       # Sample count of references to valid blocks.
system.cpu01.dcache.soft_prefetch_mshr_full            0                       # number of mshr full events for SW prefetching instrutions
system.cpu01.dcache.tagsinuse              461.003114                       # Cycle average of tags in use
system.cpu01.dcache.total_refs                   1314                       # Total number of references to valid blocks.
system.cpu01.dcache.warmup_cycle                    0                       # Cycle when the warmup percentage was hit.
system.cpu01.dcache.writebacks                     17                       # number of writebacks
system.cpu01.dtb.data_accesses                      0                       # DTB accesses
system.cpu01.dtb.data_acv                           0                       # DTB access violations
system.cpu01.dtb.data_hits                      12984                       # DTB hits
system.cpu01.dtb.data_misses                        0                       # DTB misses
system.cpu01.dtb.fetch_accesses                     0                       # ITB accesses
system.cpu01.dtb.fetch_acv                          0                       # ITB acv
system.cpu01.dtb.fetch_hits                         0                       # ITB hits
system.cpu01.dtb.fetch_misses                       0                       # ITB misses
system.cpu01.dtb.read_accesses                      0                       # DTB read accesses
system.cpu01.dtb.read_acv                           0                       # DTB read access violations
system.cpu01.dtb.read_hits                       8822                       # DTB read hits
system.cpu01.dtb.read_misses                        0                       # DTB read misses
system.cpu01.dtb.write_accesses                     0                       # DTB write accesses
system.cpu01.dtb.write_acv                          0                       # DTB write access violations
system.cpu01.dtb.write_hits                      4162                       # DTB write hits
system.cpu01.dtb.write_misses                       0                       # DTB write misses
system.cpu01.icache.ReadReq_accesses::0         40159                       # number of ReadReq accesses(hits+misses)
system.cpu01.icache.ReadReq_accesses::total        40159                       # number of ReadReq accesses(hits+misses)
system.cpu01.icache.ReadReq_avg_miss_latency::0 15184.210526                       # average ReadReq miss latency
system.cpu01.icache.ReadReq_avg_miss_latency::1          inf                       # average ReadReq miss latency
system.cpu01.icache.ReadReq_avg_miss_latency::total          inf                       # average ReadReq miss latency
system.cpu01.icache.ReadReq_avg_mshr_miss_latency 12184.210526                       # average ReadReq mshr miss latency
system.cpu01.icache.ReadReq_hits::0             40083                       # number of ReadReq hits
system.cpu01.icache.ReadReq_hits::total         40083                       # number of ReadReq hits
system.cpu01.icache.ReadReq_miss_latency      1154000                       # number of ReadReq miss cycles
system.cpu01.icache.ReadReq_miss_rate::0     0.001892                       # miss rate for ReadReq accesses
system.cpu01.icache.ReadReq_misses::0              76                       # number of ReadReq misses
system.cpu01.icache.ReadReq_misses::total           76                       # number of ReadReq misses
system.cpu01.icache.ReadReq_mshr_miss_latency       926000                       # number of ReadReq MSHR miss cycles
system.cpu01.icache.ReadReq_mshr_miss_rate::0     0.001892                       # mshr miss rate for ReadReq accesses
system.cpu01.icache.ReadReq_mshr_miss_rate::1          inf                       # mshr miss rate for ReadReq accesses
system.cpu01.icache.ReadReq_mshr_miss_rate::total          inf                       # mshr miss rate for ReadReq accesses
system.cpu01.icache.ReadReq_mshr_misses            76                       # number of ReadReq MSHR misses
system.cpu01.icache.avg_blocked_cycles::no_mshrs     no_value                       # average number of cycles each access was blocked
system.cpu01.icache.avg_blocked_cycles::no_targets     no_value                       # average number of cycles each access was blocked
system.cpu01.icache.avg_refs               232.118421                       # Average number of references to valid blocks.
system.cpu01.icache.blocked::no_mshrs               0                       # number of cycles access was blocked
system.cpu01.icache.blocked::no_targets             0                       # number of cycles access was blocked
system.cpu01.icache.blocked_cycles::no_mshrs            0                       # number of cycles access was blocked
system.cpu01.icache.blocked_cycles::no_targets            0                       # number of cycles access was blocked
system.cpu01.icache.cache_copies                    0                       # number of cache copies performed
system.cpu01.icache.demand_accesses::0          40159                       # number of demand (read+write) accesses
system.cpu01.icache.demand_accesses::1              0                       # number of demand (read+write) accesses
system.cpu01.icache.demand_accesses::total        40159                       # number of demand (read+write) accesses
system.cpu01.icache.demand_avg_miss_latency::0 15184.210526                       # average overall miss latency
system.cpu01.icache.demand_avg_miss_latency::1          inf                       # average overall miss latency
system.cpu01.icache.demand_avg_miss_latency::total          inf                       # average overall miss latency
system.cpu01.icache.demand_avg_mshr_miss_latency 12184.210526                       # average overall mshr miss latency
system.cpu01.icache.demand_hits::0              40083                       # number of demand (read+write) hits
system.cpu01.icache.demand_hits::1                  0                       # number of demand (read+write) hits
system.cpu01.icache.demand_hits::total          40083                       # number of demand (read+write) hits
system.cpu01.icache.demand_miss_latency       1154000                       # number of demand (read+write) miss cycles
system.cpu01.icache.demand_miss_rate::0      0.001892                       # miss rate for demand accesses
system.cpu01.icache.demand_miss_rate::1      no_value                       # miss rate for demand accesses
system.cpu01.icache.demand_miss_rate::total     no_value                       # miss rate for demand accesses
system.cpu01.icache.demand_misses::0               76                       # number of demand (read+write) misses
system.cpu01.icache.demand_misses::1                0                       # number of demand (read+write) misses
system.cpu01.icache.demand_misses::total           76                       # number of demand (read+write) misses
system.cpu01.icache.demand_mshr_hits                0                       # number of demand (read+write) MSHR hits
system.cpu01.icache.demand_mshr_miss_latency       926000                       # number of demand (read+write) MSHR miss cycles
system.cpu01.icache.demand_mshr_miss_rate::0     0.001892                       # mshr miss rate for demand accesses
system.cpu01.icache.demand_mshr_miss_rate::1          inf                       # mshr miss rate for demand accesses
system.cpu01.icache.demand_mshr_miss_rate::total          inf                       # mshr miss rate for demand accesses
system.cpu01.icache.demand_mshr_misses             76                       # number of demand (read+write) MSHR misses
system.cpu01.icache.fast_writes                     0                       # number of fast writes performed
system.cpu01.icache.mshr_cap_events                 0                       # number of times MSHR cap was activated
system.cpu01.icache.no_allocate_misses              0                       # Number of misses that were no-allocate
system.cpu01.icache.occ_%::0                 0.980469                       # Average percentage of cache occupancy
system.cpu01.icache.occ_blocks::0                 502                       # Average occupied blocks per context
system.cpu01.icache.overall_accesses::0         40159                       # number of overall (read+write) accesses
system.cpu01.icache.overall_accesses::1             0                       # number of overall (read+write) accesses
system.cpu01.icache.overall_accesses::total        40159                       # number of overall (read+write) accesses
system.cpu01.icache.overall_avg_miss_latency::0 15184.210526                       # average overall miss latency
system.cpu01.icache.overall_avg_miss_latency::1          inf                       # average overall miss latency
system.cpu01.icache.overall_avg_miss_latency::total          inf                       # average overall miss latency
system.cpu01.icache.overall_avg_mshr_miss_latency 12184.210526                       # average overall mshr miss latency
system.cpu01.icache.overall_avg_mshr_uncacheable_latency     no_value                       # average overall mshr uncacheable latency
system.cpu01.icache.overall_hits::0             40083                       # number of overall hits
system.cpu01.icache.overall_hits::1                 0                       # number of overall hits
system.cpu01.icache.overall_hits::total         40083                       # number of overall hits
system.cpu01.icache.overall_miss_latency      1154000                       # number of overall miss cycles
system.cpu01.icache.overall_miss_rate::0     0.001892                       # miss rate for overall accesses
system.cpu01.icache.overall_miss_rate::1     no_value                       # miss rate for overall accesses
system.cpu01.icache.overall_miss_rate::total     no_value                       # miss rate for overall accesses
system.cpu01.icache.overall_misses::0              76                       # number of overall misses
system.cpu01.icache.overall_misses::1               0                       # number of overall misses
system.cpu01.icache.overall_misses::total           76                       # number of overall misses
system.cpu01.icache.overall_mshr_hits               0                       # number of overall MSHR hits
system.cpu01.icache.overall_mshr_miss_latency       926000                       # number of overall MSHR miss cycles
system.cpu01.icache.overall_mshr_miss_rate::0     0.001892                       # mshr miss rate for overall accesses
system.cpu01.icache.overall_mshr_miss_rate::1          inf                       # mshr miss rate for overall accesses
system.cpu01.icache.overall_mshr_miss_rate::total          inf                       # mshr miss rate for overall accesses
system.cpu01.icache.overall_mshr_misses            76                       # number of overall MSHR misses
system.cpu01.icache.overall_mshr_uncacheable_latency            0                       # number of overall MSHR uncacheable cycles
system.cpu01.icache.overall_mshr_uncacheable_misses            0                       # number of overall MSHR uncacheable misses
system.cpu01.icache.replacements                   76                       # number of replacements
system.cpu01.icache.sampled_refs                   76                       # Sample count of references to valid blocks.
system.cpu01.icache.soft_prefetch_mshr_full            0                       # number of mshr full events for SW prefetching instrutions
system.cpu01.icache.tagsinuse                     502                       # Cycle average of tags in use
system.cpu01.icache.total_refs                  17641                       # Total number of references to valid blocks.
system.cpu01.icache.warmup_cycle                    0                       # Cycle when the warmup percentage was hit.
system.cpu01.icache.writebacks                      0                       # number of writebacks
system.cpu01.idle_fraction                   0.995547                       # Percentage of idle cycles
system.cpu01.itb.data_accesses                      0                       # DTB accesses
system.cpu01.itb.data_acv                           0                       # DTB access violations
system.cpu01.itb.data_hits                          0                       # DTB hits
system.cpu01.itb.data_misses                        0                       # DTB misses
system.cpu01.itb.fetch_accesses                  4191                       # ITB accesses
system.cpu01.itb.fetch_acv                          0                       # ITB acv
system.cpu01.itb.fetch_hits                      4191                       # ITB hits
system.cpu01.itb.fetch_misses                       0                       # ITB misses
system.cpu01.itb.read_accesses                      0                       # DTB read accesses
system.cpu01.itb.read_acv                           0                       # DTB read access violations
system.cpu01.itb.read_hits                          0                       # DTB read hits
system.cpu01.itb.read_misses                        0                       # DTB read misses
system.cpu01.itb.write_accesses                     0                       # DTB write accesses
system.cpu01.itb.write_acv                          0                       # DTB write access violations
system.cpu01.itb.write_hits                         0                       # DTB write hits
system.cpu01.itb.write_misses                       0                       # DTB write misses
system.cpu01.kern.callpal::swpipl                 232     80.28%     80.28% # number of callpals executed
system.cpu01.kern.callpal::rdps                    32     11.07%     91.35% # number of callpals executed
system.cpu01.kern.callpal::rti                     25      8.65%    100.00% # number of callpals executed
system.cpu01.kern.callpal::total                  289                       # number of callpals executed
system.cpu01.kern.inst.arm                          0                       # number of arm instructions executed
system.cpu01.kern.inst.hwrei                      314                       # number of hwrei instructions executed
system.cpu01.kern.inst.quiesce                     25                       # number of quiesce instructions executed
system.cpu01.kern.ipl_count::0                     73     25.89%     25.89% # number of times we switched to this ipl
system.cpu01.kern.ipl_count::22                    16      5.67%     31.56% # number of times we switched to this ipl
system.cpu01.kern.ipl_count::30                     9      3.19%     34.75% # number of times we switched to this ipl
system.cpu01.kern.ipl_count::31                   184     65.25%    100.00% # number of times we switched to this ipl
system.cpu01.kern.ipl_count::total                282                       # number of times we switched to this ipl
system.cpu01.kern.ipl_good::0                      73     45.06%     45.06% # number of times we switched to this ipl from a different ipl
system.cpu01.kern.ipl_good::22                     16      9.88%     54.94% # number of times we switched to this ipl from a different ipl
system.cpu01.kern.ipl_good::30                      9      5.56%     60.49% # number of times we switched to this ipl from a different ipl
system.cpu01.kern.ipl_good::31                     64     39.51%    100.00% # number of times we switched to this ipl from a different ipl
system.cpu01.kern.ipl_good::total                 162                       # number of times we switched to this ipl from a different ipl
system.cpu01.kern.ipl_ticks::0            15588619500     99.76%     99.76% # number of cycles we spent at this ipl
system.cpu01.kern.ipl_ticks::22               6283000      0.04%     99.80% # number of cycles we spent at this ipl
system.cpu01.kern.ipl_ticks::30               5583500      0.04%     99.83% # number of cycles we spent at this ipl
system.cpu01.kern.ipl_ticks::31              26274000      0.17%    100.00% # number of cycles we spent at this ipl
system.cpu01.kern.ipl_ticks::total        15626760000                       # number of cycles we spent at this ipl
system.cpu01.kern.ipl_used::0                       1                       # fraction of swpipl calls that actually changed the ipl
system.cpu01.kern.ipl_used::22                      1                       # fraction of swpipl calls that actually changed the ipl
system.cpu01.kern.ipl_used::30                      1                       # fraction of swpipl calls that actually changed the ipl
system.cpu01.kern.ipl_used::31               0.347826                       # fraction of swpipl calls that actually changed the ipl
system.cpu01.kern.mode_good::kernel                 0                      
system.cpu01.kern.mode_good::user                   0                      
system.cpu01.kern.mode_good::idle                   0                      
system.cpu01.kern.mode_switch::kernel               0                       # number of protection mode switches
system.cpu01.kern.mode_switch::user                 0                       # number of protection mode switches
system.cpu01.kern.mode_switch::idle                25                       # number of protection mode switches
system.cpu01.kern.mode_switch_good::kernel     no_value                       # fraction of useful protection mode switches
system.cpu01.kern.mode_switch_good::user     no_value                       # fraction of useful protection mode switches
system.cpu01.kern.mode_switch_good::idle            0                       # fraction of useful protection mode switches
system.cpu01.kern.mode_switch_good::total     no_value                       # fraction of useful protection mode switches
system.cpu01.kern.mode_ticks::kernel                0                       # number of ticks spent at the given mode
system.cpu01.kern.mode_ticks::user                  0                       # number of ticks spent at the given mode
system.cpu01.kern.mode_ticks::idle                  0                       # number of ticks spent at the given mode
system.cpu01.kern.swap_context                      0                       # number of times the context was actually changed
system.cpu01.not_idle_fraction               0.004453                       # Percentage of non-idle cycles
system.cpu01.numCycles                       31253520                       # number of cpu cycles simulated
system.cpu01.num_insts                          40159                       # Number of instructions executed
system.cpu01.num_refs                           13027                       # Number of memory references
system.cpu02.dcache.LoadLockedReq_accesses::0         5070                       # number of LoadLockedReq accesses(hits+misses)
system.cpu02.dcache.LoadLockedReq_accesses::total         5070                       # number of LoadLockedReq accesses(hits+misses)
system.cpu02.dcache.LoadLockedReq_avg_miss_latency::0 13953.551913                       # average LoadLockedReq miss latency
system.cpu02.dcache.LoadLockedReq_avg_miss_latency::1          inf                       # average LoadLockedReq miss latency
system.cpu02.dcache.LoadLockedReq_avg_miss_latency::total          inf                       # average LoadLockedReq miss latency
system.cpu02.dcache.LoadLockedReq_avg_mshr_miss_latency 10953.551913                       # average LoadLockedReq mshr miss latency
system.cpu02.dcache.LoadLockedReq_hits::0         4704                       # number of LoadLockedReq hits
system.cpu02.dcache.LoadLockedReq_hits::total         4704                       # number of LoadLockedReq hits
system.cpu02.dcache.LoadLockedReq_miss_latency      5107000                       # number of LoadLockedReq miss cycles
system.cpu02.dcache.LoadLockedReq_miss_rate::0     0.072189                       # miss rate for LoadLockedReq accesses
system.cpu02.dcache.LoadLockedReq_misses::0          366                       # number of LoadLockedReq misses
system.cpu02.dcache.LoadLockedReq_misses::total          366                       # number of LoadLockedReq misses
system.cpu02.dcache.LoadLockedReq_mshr_miss_latency      4009000                       # number of LoadLockedReq MSHR miss cycles
system.cpu02.dcache.LoadLockedReq_mshr_miss_rate::0     0.072189                       # mshr miss rate for LoadLockedReq accesses
system.cpu02.dcache.LoadLockedReq_mshr_miss_rate::1          inf                       # mshr miss rate for LoadLockedReq accesses
system.cpu02.dcache.LoadLockedReq_mshr_miss_rate::total          inf                       # mshr miss rate for LoadLockedReq accesses
system.cpu02.dcache.LoadLockedReq_mshr_misses          366                       # number of LoadLockedReq MSHR misses
system.cpu02.dcache.ReadReq_accesses::0        293100                       # number of ReadReq accesses(hits+misses)
system.cpu02.dcache.ReadReq_accesses::total       293100                       # number of ReadReq accesses(hits+misses)
system.cpu02.dcache.ReadReq_avg_miss_latency::0 16760.012285                       # average ReadReq miss latency
system.cpu02.dcache.ReadReq_avg_miss_latency::1          inf                       # average ReadReq miss latency
system.cpu02.dcache.ReadReq_avg_miss_latency::total          inf                       # average ReadReq miss latency
system.cpu02.dcache.ReadReq_avg_mshr_miss_latency 13759.582310                       # average ReadReq mshr miss latency
system.cpu02.dcache.ReadReq_avg_mshr_uncacheable_latency          inf                       # average ReadReq mshr uncacheable latency
system.cpu02.dcache.ReadReq_hits::0            284960                       # number of ReadReq hits
system.cpu02.dcache.ReadReq_hits::total        284960                       # number of ReadReq hits
system.cpu02.dcache.ReadReq_miss_latency    136426500                       # number of ReadReq miss cycles
system.cpu02.dcache.ReadReq_miss_rate::0     0.027772                       # miss rate for ReadReq accesses
system.cpu02.dcache.ReadReq_misses::0            8140                       # number of ReadReq misses
system.cpu02.dcache.ReadReq_misses::total         8140                       # number of ReadReq misses
system.cpu02.dcache.ReadReq_mshr_miss_latency    112003000                       # number of ReadReq MSHR miss cycles
system.cpu02.dcache.ReadReq_mshr_miss_rate::0     0.027772                       # mshr miss rate for ReadReq accesses
system.cpu02.dcache.ReadReq_mshr_miss_rate::1          inf                       # mshr miss rate for ReadReq accesses
system.cpu02.dcache.ReadReq_mshr_miss_rate::total          inf                       # mshr miss rate for ReadReq accesses
system.cpu02.dcache.ReadReq_mshr_misses          8140                       # number of ReadReq MSHR misses
system.cpu02.dcache.ReadReq_mshr_uncacheable_latency     75530500                       # number of ReadReq MSHR uncacheable cycles
system.cpu02.dcache.StoreCondReq_accesses::0         5039                       # number of StoreCondReq accesses(hits+misses)
system.cpu02.dcache.StoreCondReq_accesses::total         5039                       # number of StoreCondReq accesses(hits+misses)
system.cpu02.dcache.StoreCondReq_avg_miss_latency::0 44495.049505                       # average StoreCondReq miss latency
system.cpu02.dcache.StoreCondReq_avg_miss_latency::1          inf                       # average StoreCondReq miss latency
system.cpu02.dcache.StoreCondReq_avg_miss_latency::total          inf                       # average StoreCondReq miss latency
system.cpu02.dcache.StoreCondReq_avg_mshr_miss_latency 41748.221906                       # average StoreCondReq mshr miss latency
system.cpu02.dcache.StoreCondReq_hits::0         4332                       # number of StoreCondReq hits
system.cpu02.dcache.StoreCondReq_hits::total         4332                       # number of StoreCondReq hits
system.cpu02.dcache.StoreCondReq_miss_latency     31458000                       # number of StoreCondReq miss cycles
system.cpu02.dcache.StoreCondReq_miss_rate::0     0.140306                       # miss rate for StoreCondReq accesses
system.cpu02.dcache.StoreCondReq_misses::0          707                       # number of StoreCondReq misses
system.cpu02.dcache.StoreCondReq_misses::total          707                       # number of StoreCondReq misses
system.cpu02.dcache.StoreCondReq_mshr_miss_latency     29349000                       # number of StoreCondReq MSHR miss cycles
system.cpu02.dcache.StoreCondReq_mshr_miss_rate::0     0.139512                       # mshr miss rate for StoreCondReq accesses
system.cpu02.dcache.StoreCondReq_mshr_miss_rate::1          inf                       # mshr miss rate for StoreCondReq accesses
system.cpu02.dcache.StoreCondReq_mshr_miss_rate::total          inf                       # mshr miss rate for StoreCondReq accesses
system.cpu02.dcache.StoreCondReq_mshr_misses          703                       # number of StoreCondReq MSHR misses
system.cpu02.dcache.WriteReq_accesses::0       167924                       # number of WriteReq accesses(hits+misses)
system.cpu02.dcache.WriteReq_accesses::total       167924                       # number of WriteReq accesses(hits+misses)
system.cpu02.dcache.WriteReq_avg_miss_latency::0 52988.697941                       # average WriteReq miss latency
system.cpu02.dcache.WriteReq_avg_miss_latency::1          inf                       # average WriteReq miss latency
system.cpu02.dcache.WriteReq_avg_miss_latency::total          inf                       # average WriteReq miss latency
system.cpu02.dcache.WriteReq_avg_mshr_miss_latency 49988.697941                       # average WriteReq mshr miss latency
system.cpu02.dcache.WriteReq_avg_mshr_uncacheable_latency          inf                       # average WriteReq mshr uncacheable latency
system.cpu02.dcache.WriteReq_hits::0           161465                       # number of WriteReq hits
system.cpu02.dcache.WriteReq_hits::total       161465                       # number of WriteReq hits
system.cpu02.dcache.WriteReq_miss_latency    342254000                       # number of WriteReq miss cycles
system.cpu02.dcache.WriteReq_miss_rate::0     0.038464                       # miss rate for WriteReq accesses
system.cpu02.dcache.WriteReq_misses::0           6459                       # number of WriteReq misses
system.cpu02.dcache.WriteReq_misses::total         6459                       # number of WriteReq misses
system.cpu02.dcache.WriteReq_mshr_miss_latency    322877000                       # number of WriteReq MSHR miss cycles
system.cpu02.dcache.WriteReq_mshr_miss_rate::0     0.038464                       # mshr miss rate for WriteReq accesses
[...]
system.l2.occ_%::12                          0.002810                       # Average percentage of cache occupancy
system.l2.occ_%::13                          0.002668                       # Average percentage of cache occupancy
system.l2.occ_%::14                          0.006903                       # Average percentage of cache occupancy
system.l2.occ_%::15                          0.002594                       # Average percentage of cache occupancy
system.l2.occ_%::16                          0.374744                       # Average percentage of cache occupancy
system.l2.occ_blocks::0                    620.832079                       # Average occupied blocks per context
system.l2.occ_blocks::1                    271.391071                       # Average occupied blocks per context
system.l2.occ_blocks::2                   2112.747304                       # Average occupied blocks per context
system.l2.occ_blocks::3                    751.453485                       # Average occupied blocks per context
system.l2.occ_blocks::4                   1037.922257                       # Average occupied blocks per context
system.l2.occ_blocks::5                    446.860542                       # Average occupied blocks per context
system.l2.occ_blocks::6                    306.546894                       # Average occupied blocks per context
system.l2.occ_blocks::7                    157.218795                       # Average occupied blocks per context
system.l2.occ_blocks::8                     44.174747                       # Average occupied blocks per context
system.l2.occ_blocks::9                     17.419245                       # Average occupied blocks per context
system.l2.occ_blocks::10                   202.731858                       # Average occupied blocks per context
system.l2.occ_blocks::11                    33.405079                       # Average occupied blocks per context
system.l2.occ_blocks::12                    92.073479                       # Average occupied blocks per context
system.l2.occ_blocks::13                    87.440726                       # Average occupied blocks per context
system.l2.occ_blocks::14                   226.211113                       # Average occupied blocks per context
system.l2.occ_blocks::15                    84.987824                       # Average occupied blocks per context
system.l2.occ_blocks::16                 12279.601162                       # Average occupied blocks per context
system.l2.overall_accesses::0                    1648                       # number of overall (read+write) accesses
system.l2.overall_accesses::1                    1705                       # number of overall (read+write) accesses
system.l2.overall_accesses::2                    7841                       # number of overall (read+write) accesses
system.l2.overall_accesses::3                    4780                       # number of overall (read+write) accesses
system.l2.overall_accesses::4                   31898                       # number of overall (read+write) accesses
system.l2.overall_accesses::5                    7446                       # number of overall (read+write) accesses
system.l2.overall_accesses::6                   17164                       # number of overall (read+write) accesses
system.l2.overall_accesses::7                    1208                       # number of overall (read+write) accesses
system.l2.overall_accesses::8                    1415                       # number of overall (read+write) accesses
system.l2.overall_accesses::9                    1251                       # number of overall (read+write) accesses
system.l2.overall_accesses::10                   1319                       # number of overall (read+write) accesses
system.l2.overall_accesses::11                   1284                       # number of overall (read+write) accesses
system.l2.overall_accesses::12                   1418                       # number of overall (read+write) accesses
system.l2.overall_accesses::13                   1381                       # number of overall (read+write) accesses
system.l2.overall_accesses::14                   1226                       # number of overall (read+write) accesses
system.l2.overall_accesses::15                   1313                       # number of overall (read+write) accesses
system.l2.overall_accesses::16                      0                       # number of overall (read+write) accesses
system.l2.overall_accesses::total               84297                       # number of overall (read+write) accesses
system.l2.overall_avg_miss_latency::0    5290776.872964                       # average overall miss latency
system.l2.overall_avg_miss_latency::1    6575985.829960                       # average overall miss latency
system.l2.overall_avg_miss_latency::2    556065.902088                       # average overall miss latency
system.l2.overall_avg_miss_latency::3    1170222.262248                       # average overall miss latency
system.l2.overall_avg_miss_latency::4    135525.114727                       # average overall miss latency
system.l2.overall_avg_miss_latency::5    654155.658478                       # average overall miss latency
system.l2.overall_avg_miss_latency::6    164466.231268                       # average overall miss latency
system.l2.overall_avg_miss_latency::7    7031465.367965                       # average overall miss latency
system.l2.overall_avg_miss_latency::8         6497074                       # average overall miss latency
system.l2.overall_avg_miss_latency::9    7155367.841410                       # average overall miss latency
system.l2.overall_avg_miss_latency::10   7771619.617225                       # average overall miss latency
system.l2.overall_avg_miss_latency::11   7734611.904762                       # average overall miss latency
system.l2.overall_avg_miss_latency::12   7590039.719626                       # average overall miss latency
system.l2.overall_avg_miss_latency::13   6971109.442060                       # average overall miss latency
system.l2.overall_avg_miss_latency::14   7485108.294931                       # average overall miss latency
system.l2.overall_avg_miss_latency::15   6656838.114754                       # average overall miss latency
system.l2.overall_avg_miss_latency::16            inf                       # average overall miss latency
system.l2.overall_avg_miss_latency::total          inf                       # average overall miss latency
system.l2.overall_avg_mshr_miss_latency  40005.831464                       # average overall mshr miss latency
system.l2.overall_avg_mshr_uncacheable_latency          inf                       # average overall mshr uncacheable latency
system.l2.overall_hits::0                        1341                       # number of overall hits
system.l2.overall_hits::1                        1458                       # number of overall hits
system.l2.overall_hits::2                        4920                       # number of overall hits
system.l2.overall_hits::3                        3392                       # number of overall hits
system.l2.overall_hits::4                       19913                       # number of overall hits
system.l2.overall_hits::5                        4963                       # number of overall hits
system.l2.overall_hits::6                        7288                       # number of overall hits
system.l2.overall_hits::7                         977                       # number of overall hits
system.l2.overall_hits::8                        1165                       # number of overall hits
system.l2.overall_hits::9                        1024                       # number of overall hits
system.l2.overall_hits::10                       1110                       # number of overall hits
system.l2.overall_hits::11                       1074                       # number of overall hits
system.l2.overall_hits::12                       1204                       # number of overall hits
system.l2.overall_hits::13                       1148                       # number of overall hits
system.l2.overall_hits::14                       1009                       # number of overall hits
system.l2.overall_hits::15                       1069                       # number of overall hits
system.l2.overall_hits::16                          0                       # number of overall hits
system.l2.overall_hits::total                   53055                       # number of overall hits
system.l2.overall_miss_latency             1624268500                       # number of overall miss cycles
system.l2.overall_miss_rate::0               0.186286                       # miss rate for overall accesses
system.l2.overall_miss_rate::1               0.144868                       # miss rate for overall accesses
system.l2.overall_miss_rate::2               0.372529                       # miss rate for overall accesses
system.l2.overall_miss_rate::3               0.290377                       # miss rate for overall accesses
system.l2.overall_miss_rate::4               0.375729                       # miss rate for overall accesses
system.l2.overall_miss_rate::5               0.333468                       # miss rate for overall accesses
system.l2.overall_miss_rate::6               0.575390                       # miss rate for overall accesses
system.l2.overall_miss_rate::7               0.191225                       # miss rate for overall accesses
system.l2.overall_miss_rate::8               0.176678                       # miss rate for overall accesses
system.l2.overall_miss_rate::9               0.181455                       # miss rate for overall accesses
system.l2.overall_miss_rate::10              0.158453                       # miss rate for overall accesses
system.l2.overall_miss_rate::11              0.163551                       # miss rate for overall accesses
system.l2.overall_miss_rate::12              0.150917                       # miss rate for overall accesses
system.l2.overall_miss_rate::13              0.168718                       # miss rate for overall accesses
system.l2.overall_miss_rate::14              0.176998                       # miss rate for overall accesses
system.l2.overall_miss_rate::15              0.185834                       # miss rate for overall accesses
system.l2.overall_miss_rate::16              no_value                       # miss rate for overall accesses
system.l2.overall_miss_rate::total           no_value                       # miss rate for overall accesses
system.l2.overall_misses::0                       307                       # number of overall misses
system.l2.overall_misses::1                       247                       # number of overall misses
system.l2.overall_misses::2                      2921                       # number of overall misses
system.l2.overall_misses::3                      1388                       # number of overall misses
system.l2.overall_misses::4                     11985                       # number of overall misses
system.l2.overall_misses::5                      2483                       # number of overall misses
system.l2.overall_misses::6                      9876                       # number of overall misses
system.l2.overall_misses::7                       231                       # number of overall misses
system.l2.overall_misses::8                       250                       # number of overall misses
system.l2.overall_misses::9                       227                       # number of overall misses
system.l2.overall_misses::10                      209                       # number of overall misses
system.l2.overall_misses::11                      210                       # number of overall misses
system.l2.overall_misses::12                      214                       # number of overall misses
system.l2.overall_misses::13                      233                       # number of overall misses
system.l2.overall_misses::14                      217                       # number of overall misses
system.l2.overall_misses::15                      244                       # number of overall misses
system.l2.overall_misses::16                        0                       # number of overall misses
system.l2.overall_misses::total                 31242                       # number of overall misses
system.l2.overall_mshr_hits                        32                       # number of overall MSHR hits
system.l2.overall_mshr_miss_latency        1248582000                       # number of overall MSHR miss cycles
system.l2.overall_mshr_miss_rate::0         18.938107                       # mshr miss rate for overall accesses
system.l2.overall_mshr_miss_rate::1         18.304985                       # mshr miss rate for overall accesses
system.l2.overall_mshr_miss_rate::2          3.980360                       # mshr miss rate for overall accesses
system.l2.overall_mshr_miss_rate::3          6.529289                       # mshr miss rate for overall accesses
system.l2.overall_mshr_miss_rate::4          0.978431                       # mshr miss rate for overall accesses
system.l2.overall_mshr_miss_rate::5          4.191512                       # mshr miss rate for overall accesses
system.l2.overall_mshr_miss_rate::6          1.818341                       # mshr miss rate for overall accesses
system.l2.overall_mshr_miss_rate::7         25.836093                       # mshr miss rate for overall accesses
system.l2.overall_mshr_miss_rate::8         22.056537                       # mshr miss rate for overall accesses
system.l2.overall_mshr_miss_rate::9         24.948042                       # mshr miss rate for overall accesses
system.l2.overall_mshr_miss_rate::10        23.661865                       # mshr miss rate for overall accesses
system.l2.overall_mshr_miss_rate::11        24.306854                       # mshr miss rate for overall accesses
system.l2.overall_mshr_miss_rate::12        22.009873                       # mshr miss rate for overall accesses
system.l2.overall_mshr_miss_rate::13        22.599566                       # mshr miss rate for overall accesses
system.l2.overall_mshr_miss_rate::14        25.456770                       # mshr miss rate for overall accesses
system.l2.overall_mshr_miss_rate::15        23.769992                       # mshr miss rate for overall accesses
system.l2.overall_mshr_miss_rate::16              inf                       # mshr miss rate for overall accesses
system.l2.overall_mshr_miss_rate::total           inf                       # mshr miss rate for overall accesses
system.l2.overall_mshr_misses                   31210                       # number of overall MSHR misses
system.l2.overall_mshr_uncacheable_latency    142083500                       # number of overall MSHR uncacheable cycles
system.l2.overall_mshr_uncacheable_misses            0                       # number of overall MSHR uncacheable misses
system.l2.replacements                          22583                       # number of replacements
system.l2.sampled_refs                          41533                       # Sample count of references to valid blocks.
system.l2.soft_prefetch_mshr_full                   0                       # number of mshr full events for SW prefetching instrutions
system.l2.tagsinuse                      18773.017661                       # Cycle average of tags in use
system.l2.total_refs                           559854                       # Total number of references to valid blocks.
system.l2.warmup_cycle                              0                       # Cycle when the warmup percentage was hit.
system.l2.writebacks                            13900                       # number of writebacks
system.tsunami.ethernet.coalescedRxDesc      no_value                       # average number of RxDesc's coalesced into each post
system.tsunami.ethernet.coalescedRxIdle      no_value                       # average number of RxIdle's coalesced into each post
system.tsunami.ethernet.coalescedRxOk        no_value                       # average number of RxOk's coalesced into each post
system.tsunami.ethernet.coalescedRxOrn       no_value                       # average number of RxOrn's coalesced into each post
system.tsunami.ethernet.coalescedSwi         no_value                       # average number of Swi's coalesced into each post
system.tsunami.ethernet.coalescedTotal       no_value                       # average number of interrupts coalesced into each post
system.tsunami.ethernet.coalescedTxDesc      no_value                       # average number of TxDesc's coalesced into each post
system.tsunami.ethernet.coalescedTxIdle      no_value                       # average number of TxIdle's coalesced into each post
system.tsunami.ethernet.coalescedTxOk        no_value                       # average number of TxOk's coalesced into each post
system.tsunami.ethernet.descDMAReads                0                       # Number of descriptors the device read w/ DMA
system.tsunami.ethernet.descDMAWrites               0                       # Number of descriptors the device wrote w/ DMA
system.tsunami.ethernet.descDmaReadBytes            0                       # number of descriptor bytes read w/ DMA
system.tsunami.ethernet.descDmaWriteBytes            0                       # number of descriptor bytes write w/ DMA
system.tsunami.ethernet.droppedPackets              0                       # number of packets dropped
system.tsunami.ethernet.postedInterrupts            0                       # number of posts to CPU
system.tsunami.ethernet.postedRxDesc                0                       # number of RxDesc interrupts posted to CPU
system.tsunami.ethernet.postedRxIdle                0                       # number of rxIdle interrupts posted to CPU
system.tsunami.ethernet.postedRxOk                  0                       # number of RxOk interrupts posted to CPU
system.tsunami.ethernet.postedRxOrn                 0                       # number of RxOrn posted to CPU
system.tsunami.ethernet.postedSwi                   0                       # number of software interrupts posted to CPU
system.tsunami.ethernet.postedTxDesc                0                       # number of TxDesc interrupts posted to CPU
system.tsunami.ethernet.postedTxIdle                0                       # number of TxIdle interrupts posted to CPU
system.tsunami.ethernet.postedTxOk                  0                       # number of TxOk interrupts posted to CPU
system.tsunami.ethernet.totalRxDesc                 0                       # total number of RxDesc written to ISR
system.tsunami.ethernet.totalRxIdle                 0                       # total number of RxIdle written to ISR
system.tsunami.ethernet.totalRxOk                   0                       # total number of RxOk written to ISR
system.tsunami.ethernet.totalRxOrn                  0                       # total number of RxOrn written to ISR
system.tsunami.ethernet.totalSwi                    0                       # total number of Swi written to ISR
system.tsunami.ethernet.totalTxDesc                 0                       # total number of TxDesc written to ISR
system.tsunami.ethernet.totalTxIdle                 0                       # total number of TxIdle written to ISR
system.tsunami.ethernet.totalTxOk                   0                       # total number of TxOk written to ISR

---------- End Simulation Statistics   ----------
