
---------- Begin Simulation Statistics ----------
host_inst_rate                                 975927                       # Simulator instruction rate (inst/s)
host_mem_usage                                 387552                       # Number of bytes of host memory used
host_seconds                                   180.04                       # Real time elapsed on the host
host_tick_rate                            13317952344                       # Simulator tick rate (ticks/s)
sim_freq                                 1000000000000                       # Frequency of simulated ticks
sim_insts                                   175709676                       # Number of instructions simulated
sim_seconds                                  2.397819                       # Number of seconds simulated
sim_ticks                                2397819010000                       # Number of ticks simulated
system.cpu00.dcache.LoadLockedReq_accesses::0       164278                       # number of LoadLockedReq accesses(hits+misses)
system.cpu00.dcache.LoadLockedReq_accesses::total       164278                       # number of LoadLockedReq accesses(hits+misses)
system.cpu00.dcache.LoadLockedReq_avg_miss_latency::0 10115.496873                       # average LoadLockedReq miss latency
system.cpu00.dcache.LoadLockedReq_avg_miss_latency::1          inf                       # average LoadLockedReq miss latency
system.cpu00.dcache.LoadLockedReq_avg_miss_latency::total          inf                       # average LoadLockedReq miss latency
system.cpu00.dcache.LoadLockedReq_avg_mshr_miss_latency  7115.496873                       # average LoadLockedReq mshr miss latency
system.cpu00.dcache.LoadLockedReq_hits::0       149888                       # number of LoadLockedReq hits
system.cpu00.dcache.LoadLockedReq_hits::total       149888                       # number of LoadLockedReq hits
system.cpu00.dcache.LoadLockedReq_miss_latency    145562000                       # number of LoadLockedReq miss cycles
system.cpu00.dcache.LoadLockedReq_miss_rate::0     0.087595                       # miss rate for LoadLockedReq accesses
system.cpu00.dcache.LoadLockedReq_misses::0        14390                       # number of LoadLockedReq misses
system.cpu00.dcache.LoadLockedReq_misses::total        14390                       # number of LoadLockedReq misses
system.cpu00.dcache.LoadLockedReq_mshr_miss_latency    102392000                       # number of LoadLockedReq MSHR miss cycles
system.cpu00.dcache.LoadLockedReq_mshr_miss_rate::0     0.087595                       # mshr miss rate for LoadLockedReq accesses
system.cpu00.dcache.LoadLockedReq_mshr_miss_rate::1          inf                       # mshr miss rate for LoadLockedReq accesses
system.cpu00.dcache.LoadLockedReq_mshr_miss_rate::total          inf                       # mshr miss rate for LoadLockedReq accesses
system.cpu00.dcache.LoadLockedReq_mshr_misses        14390                       # number of LoadLockedReq MSHR misses
system.cpu00.dcache.ReadReq_accesses::0      10571468                       # number of ReadReq accesses(hits+misses)
system.cpu00.dcache.ReadReq_accesses::total     10571468                       # number of ReadReq accesses(hits+misses)
system.cpu00.dcache.ReadReq_avg_miss_latency::0 18047.322527                       # average ReadReq miss latency
system.cpu00.dcache.ReadReq_avg_miss_latency::1          inf                       # average ReadReq miss latency
system.cpu00.dcache.ReadReq_avg_miss_latency::total          inf                       # average ReadReq miss latency
system.cpu00.dcache.ReadReq_avg_mshr_miss_latency 15047.320372                       # average ReadReq mshr miss latency
system.cpu00.dcache.ReadReq_avg_mshr_uncacheable_latency          inf                       # average ReadReq mshr uncacheable latency
system.cpu00.dcache.ReadReq_hits::0           9179129                       # number of ReadReq hits
system.cpu00.dcache.ReadReq_hits::total       9179129                       # number of ReadReq hits
system.cpu00.dcache.ReadReq_miss_latency  25127991000                       # number of ReadReq miss cycles
system.cpu00.dcache.ReadReq_miss_rate::0     0.131707                       # miss rate for ReadReq accesses
system.cpu00.dcache.ReadReq_misses::0         1392339                       # number of ReadReq misses
system.cpu00.dcache.ReadReq_misses::total      1392339                       # number of ReadReq misses
system.cpu00.dcache.ReadReq_mshr_miss_latency  20950971000                       # number of ReadReq MSHR miss cycles
system.cpu00.dcache.ReadReq_mshr_miss_rate::0     0.131707                       # mshr miss rate for ReadReq accesses
system.cpu00.dcache.ReadReq_mshr_miss_rate::1          inf                       # mshr miss rate for ReadReq accesses
system.cpu00.dcache.ReadReq_mshr_miss_rate::total          inf                       # mshr miss rate for ReadReq accesses
system.cpu00.dcache.ReadReq_mshr_misses       1392339                       # number of ReadReq MSHR misses
system.cpu00.dcache.ReadReq_mshr_uncacheable_latency    662054000                       # number of ReadReq MSHR uncacheable cycles
system.cpu00.dcache.StoreCondReq_accesses::0       123257                       # number of StoreCondReq accesses(hits+misses)
system.cpu00.dcache.StoreCondReq_accesses::total       123257                       # number of StoreCondReq accesses(hits+misses)
system.cpu00.dcache.StoreCondReq_avg_miss_latency::0 34449.300943                       # average StoreCondReq miss latency
system.cpu00.dcache.StoreCondReq_avg_miss_latency::1          inf                       # average StoreCondReq miss latency
system.cpu00.dcache.StoreCondReq_avg_miss_latency::total          inf                       # average StoreCondReq miss latency
system.cpu00.dcache.StoreCondReq_avg_mshr_miss_latency 31548.795826                       # average StoreCondReq mshr miss latency
system.cpu00.dcache.StoreCondReq_hits::0       101728                       # number of StoreCondReq hits
system.cpu00.dcache.StoreCondReq_hits::total       101728                       # number of StoreCondReq hits
system.cpu00.dcache.StoreCondReq_miss_latency    741659000                       # number of StoreCondReq miss cycles
system.cpu00.dcache.StoreCondReq_miss_rate::0     0.174668                       # miss rate for StoreCondReq accesses
system.cpu00.dcache.StoreCondReq_misses::0        21529                       # number of StoreCondReq misses
system.cpu00.dcache.StoreCondReq_misses::total        21529                       # number of StoreCondReq misses
system.cpu00.dcache.StoreCondReq_mshr_miss_latency    677258000                       # number of StoreCondReq MSHR miss cycles
system.cpu00.dcache.StoreCondReq_mshr_miss_rate::0     0.174165                       # mshr miss rate for StoreCondReq accesses
system.cpu00.dcache.StoreCondReq_mshr_miss_rate::1          inf                       # mshr miss rate for StoreCondReq accesses
system.cpu00.dcache.StoreCondReq_mshr_miss_rate::total          inf                       # mshr miss rate for StoreCondReq accesses
system.cpu00.dcache.StoreCondReq_mshr_misses        21467                       # number of StoreCondReq MSHR misses
system.cpu00.dcache.WriteReq_accesses::0      4665382                       # number of WriteReq accesses(hits+misses)
system.cpu00.dcache.WriteReq_accesses::total      4665382                       # number of WriteReq accesses(hits+misses)
system.cpu00.dcache.WriteReq_avg_miss_latency::0 52652.676925                       # average WriteReq miss latency
system.cpu00.dcache.WriteReq_avg_miss_latency::1          inf                       # average WriteReq miss latency
system.cpu00.dcache.WriteReq_avg_miss_latency::total          inf                       # average WriteReq miss latency
system.cpu00.dcache.WriteReq_avg_mshr_miss_latency 49652.676925                       # average WriteReq mshr miss latency
system.cpu00.dcache.WriteReq_avg_mshr_uncacheable_latency          inf                       # average WriteReq mshr uncacheable latency
system.cpu00.dcache.WriteReq_hits::0          4434296                       # number of WriteReq hits
system.cpu00.dcache.WriteReq_hits::total      4434296                       # number of WriteReq hits
system.cpu00.dcache.WriteReq_miss_latency  12167296500                       # number of WriteReq miss cycles
system.cpu00.dcache.WriteReq_miss_rate::0     0.049532                       # miss rate for WriteReq accesses
system.cpu00.dcache.WriteReq_misses::0         231086                       # number of WriteReq misses
system.cpu00.dcache.WriteReq_misses::total       231086                       # number of WriteReq misses
system.cpu00.dcache.WriteReq_mshr_miss_latency  11474038500                       # number of WriteReq MSHR miss cycles
system.cpu00.dcache.WriteReq_mshr_miss_rate::0     0.049532                       # mshr miss rate for WriteReq accesses
system.cpu00.dcache.WriteReq_mshr_miss_rate::1          inf                       # mshr miss rate for WriteReq accesses
system.cpu00.dcache.WriteReq_mshr_miss_rate::total          inf                       # mshr miss rate for WriteReq accesses
system.cpu00.dcache.WriteReq_mshr_misses       231086                       # number of WriteReq MSHR misses
system.cpu00.dcache.WriteReq_mshr_uncacheable_latency   1751813500                       # number of WriteReq MSHR uncacheable cycles
system.cpu00.dcache.avg_blocked_cycles::no_mshrs     no_value                       # average number of cycles each access was blocked
system.cpu00.dcache.avg_blocked_cycles::no_targets     no_value                       # average number of cycles each access was blocked
system.cpu00.dcache.avg_refs                 9.027236                       # Average number of references to valid blocks.
system.cpu00.dcache.blocked::no_mshrs               0                       # number of cycles access was blocked
system.cpu00.dcache.blocked::no_targets             0                       # number of cycles access was blocked
system.cpu00.dcache.blocked_cycles::no_mshrs            0                       # number of cycles access was blocked
system.cpu00.dcache.blocked_cycles::no_targets            0                       # number of cycles access was blocked
system.cpu00.dcache.cache_copies                    0                       # number of cache copies performed
system.cpu00.dcache.demand_accesses::0       15236850                       # number of demand (read+write) accesses
system.cpu00.dcache.demand_accesses::1              0                       # number of demand (read+write) accesses
system.cpu00.dcache.demand_accesses::total     15236850                       # number of demand (read+write) accesses
system.cpu00.dcache.demand_avg_miss_latency::0 22973.212498                       # average overall miss latency
system.cpu00.dcache.demand_avg_miss_latency::1          inf                       # average overall miss latency
system.cpu00.dcache.demand_avg_miss_latency::total          inf                       # average overall miss latency
system.cpu00.dcache.demand_avg_mshr_miss_latency 19973.210650                       # average overall mshr miss latency
system.cpu00.dcache.demand_hits::0           13613425                       # number of demand (read+write) hits
system.cpu00.dcache.demand_hits::1                  0                       # number of demand (read+write) hits
system.cpu00.dcache.demand_hits::total       13613425                       # number of demand (read+write) hits
system.cpu00.dcache.demand_miss_latency   37295287500                       # number of demand (read+write) miss cycles
system.cpu00.dcache.demand_miss_rate::0      0.106546                       # miss rate for demand accesses
system.cpu00.dcache.demand_miss_rate::1      no_value                       # miss rate for demand accesses
system.cpu00.dcache.demand_miss_rate::total     no_value                       # miss rate for demand accesses
system.cpu00.dcache.demand_misses::0          1623425                       # number of demand (read+write) misses
system.cpu00.dcache.demand_misses::1                0                       # number of demand (read+write) misses
system.cpu00.dcache.demand_misses::total      1623425                       # number of demand (read+write) misses
system.cpu00.dcache.demand_mshr_hits                0                       # number of demand (read+write) MSHR hits
system.cpu00.dcache.demand_mshr_miss_latency  32425009500                       # number of demand (read+write) MSHR miss cycles
system.cpu00.dcache.demand_mshr_miss_rate::0     0.106546                       # mshr miss rate for demand accesses
system.cpu00.dcache.demand_mshr_miss_rate::1          inf                       # mshr miss rate for demand accesses
system.cpu00.dcache.demand_mshr_miss_rate::total          inf                       # mshr miss rate for demand accesses
system.cpu00.dcache.demand_mshr_misses        1623425                       # number of demand (read+write) MSHR misses
system.cpu00.dcache.fast_writes                     0                       # number of fast writes performed
system.cpu00.dcache.mshr_cap_events                 0                       # number of times MSHR cap was activated
system.cpu00.dcache.no_allocate_misses              0                       # Number of misses that were no-allocate
system.cpu00.dcache.occ_%::0                 0.964999                       # Average percentage of cache occupancy
system.cpu00.dcache.occ_%::1                -0.000029                       # Average percentage of cache occupancy
system.cpu00.dcache.occ_blocks::0          988.158690                       # Average occupied blocks per context
system.cpu00.dcache.occ_blocks::1           -0.029361                       # Average occupied blocks per context
system.cpu00.dcache.overall_accesses::0      15236850                       # number of overall (read+write) accesses
system.cpu00.dcache.overall_accesses::1             0                       # number of overall (read+write) accesses
system.cpu00.dcache.overall_accesses::total     15236850                       # number of overall (read+write) accesses
system.cpu00.dcache.overall_avg_miss_latency::0 22973.212498                       # average overall miss latency
system.cpu00.dcache.overall_avg_miss_latency::1          inf                       # average overall miss latency
system.cpu00.dcache.overall_avg_miss_latency::total          inf                       # average overall miss latency
system.cpu00.dcache.overall_avg_mshr_miss_latency 19973.210650                       # average overall mshr miss latency
system.cpu00.dcache.overall_avg_mshr_uncacheable_latency          inf                       # average overall mshr uncacheable latency
system.cpu00.dcache.overall_hits::0          13613425                       # number of overall hits
system.cpu00.dcache.overall_hits::1                 0                       # number of overall hits
system.cpu00.dcache.overall_hits::total      13613425                       # number of overall hits
system.cpu00.dcache.overall_miss_latency  37295287500                       # number of overall miss cycles
system.cpu00.dcache.overall_miss_rate::0     0.106546                       # miss rate for overall accesses
system.cpu00.dcache.overall_miss_rate::1     no_value                       # miss rate for overall accesses
system.cpu00.dcache.overall_miss_rate::total     no_value                       # miss rate for overall accesses
system.cpu00.dcache.overall_misses::0         1623425                       # number of overall misses
system.cpu00.dcache.overall_misses::1               0                       # number of overall misses
system.cpu00.dcache.overall_misses::total      1623425                       # number of overall misses
system.cpu00.dcache.overall_mshr_hits               0                       # number of overall MSHR hits
system.cpu00.dcache.overall_mshr_miss_latency  32425009500                       # number of overall MSHR miss cycles
system.cpu00.dcache.overall_mshr_miss_rate::0     0.106546                       # mshr miss rate for overall accesses
system.cpu00.dcache.overall_mshr_miss_rate::1          inf                       # mshr miss rate for overall accesses
system.cpu00.dcache.overall_mshr_miss_rate::total          inf                       # mshr miss rate for overall accesses
system.cpu00.dcache.overall_mshr_misses       1623425                       # number of overall MSHR misses
system.cpu00.dcache.overall_mshr_uncacheable_latency   2413867500                       # number of overall MSHR uncacheable cycles
system.cpu00.dcache.overall_mshr_uncacheable_misses            0                       # number of overall MSHR uncacheable misses
system.cpu00.dcache.replacements              1529132                       # number of replacements
system.cpu00.dcache.sampled_refs              1529132                       # Sample count of references to valid blocks.
system.cpu00.dcache.soft_prefetch_mshr_full            0                       # number of mshr full events for SW prefetching instrutions
system.cpu00.dcache.tagsinuse              988.129328                       # Cycle average of tags in use
system.cpu00.dcache.total_refs               13803835                       # Total number of references to valid blocks.
system.cpu00.dcache.warmup_cycle            131345000                       # Cycle when the warmup percentage was hit.
system.cpu00.dcache.writebacks                 222950                       # number of writebacks
system.cpu00.dtb.data_accesses                   1550                       # DTB accesses
system.cpu00.dtb.data_acv                           0                       # DTB access violations
system.cpu00.dtb.data_hits                   15523184                       # DTB hits
system.cpu00.dtb.data_misses                       46                       # DTB misses
system.cpu00.dtb.fetch_accesses                     0                       # ITB accesses
system.cpu00.dtb.fetch_acv                          0                       # ITB acv
system.cpu00.dtb.fetch_hits                         0                       # ITB hits
system.cpu00.dtb.fetch_misses                       0                       # ITB misses
system.cpu00.dtb.read_accesses                   1042                       # DTB read accesses
system.cpu00.dtb.read_acv                           0                       # DTB read access violations
system.cpu00.dtb.read_hits                   10730759                       # DTB read hits
system.cpu00.dtb.read_misses                       44                       # DTB read misses
system.cpu00.dtb.write_accesses                   508                       # DTB write accesses
system.cpu00.dtb.write_acv                          0                       # DTB write access violations
system.cpu00.dtb.write_hits                   4792425                       # DTB write hits
system.cpu00.dtb.write_misses                       2                       # DTB write misses
system.cpu00.icache.ReadReq_accesses::0      62034542                       # number of ReadReq accesses(hits+misses)
system.cpu00.icache.ReadReq_accesses::total     62034542                       # number of ReadReq accesses(hits+misses)
system.cpu00.icache.ReadReq_avg_miss_latency::0 14980.484448                       # average ReadReq miss latency
system.cpu00.icache.ReadReq_avg_miss_latency::1          inf                       # average ReadReq miss latency
system.cpu00.icache.ReadReq_avg_miss_latency::total          inf                       # average ReadReq miss latency
system.cpu00.icache.ReadReq_avg_mshr_miss_latency 11975.901220                       # average ReadReq mshr miss latency
system.cpu00.icache.ReadReq_hits::0          61528894                       # number of ReadReq hits
system.cpu00.icache.ReadReq_hits::total      61528894                       # number of ReadReq hits
system.cpu00.icache.ReadReq_miss_latency   7574852000                       # number of ReadReq miss cycles
system.cpu00.icache.ReadReq_miss_rate::0     0.008151                       # miss rate for ReadReq accesses
system.cpu00.icache.ReadReq_misses::0          505648                       # number of ReadReq misses
system.cpu00.icache.ReadReq_misses::total       505648                       # number of ReadReq misses
system.cpu00.icache.ReadReq_mshr_miss_latency   6055590500                       # number of ReadReq MSHR miss cycles
system.cpu00.icache.ReadReq_mshr_miss_rate::0     0.008151                       # mshr miss rate for ReadReq accesses
system.cpu00.icache.ReadReq_mshr_miss_rate::1          inf                       # mshr miss rate for ReadReq accesses
system.cpu00.icache.ReadReq_mshr_miss_rate::total          inf                       # mshr miss rate for ReadReq accesses
system.cpu00.icache.ReadReq_mshr_misses        505648                       # number of ReadReq MSHR misses
system.cpu00.icache.avg_blocked_cycles::no_mshrs     no_value                       # average number of cycles each access was blocked
system.cpu00.icache.avg_blocked_cycles::no_targets     no_value                       # average number of cycles each access was blocked
system.cpu00.icache.avg_refs               121.576493                       # Average number of references to valid blocks.
system.cpu00.icache.blocked::no_mshrs               0                       # number of cycles access was blocked
system.cpu00.icache.blocked::no_targets             0                       # number of cycles access was blocked
system.cpu00.icache.blocked_cycles::no_mshrs            0                       # number of cycles access was blocked
system.cpu00.icache.blocked_cycles::no_targets            0                       # number of cycles access was blocked
system.cpu00.icache.cache_copies                    0                       # number of cache copies performed
system.cpu00.icache.demand_accesses::0       62034542                       # number of demand (read+write) accesses
system.cpu00.icache.demand_accesses::1              0                       # number of demand (read+write) accesses
system.cpu00.icache.demand_accesses::total     62034542                       # number of demand (read+write) accesses
system.cpu00.icache.demand_avg_miss_latency::0 14980.484448                       # average overall miss latency
system.cpu00.icache.demand_avg_miss_latency::1          inf                       # average overall miss latency
system.cpu00.icache.demand_avg_miss_latency::total          inf                       # average overall miss latency
system.cpu00.icache.demand_avg_mshr_miss_latency 11975.901220                       # average overall mshr miss latency
system.cpu00.icache.demand_hits::0           61528894                       # number of demand (read+write) hits
system.cpu00.icache.demand_hits::1                  0                       # number of demand (read+write) hits
system.cpu00.icache.demand_hits::total       61528894                       # number of demand (read+write) hits
system.cpu00.icache.demand_miss_latency    7574852000                       # number of demand (read+write) miss cycles
system.cpu00.icache.demand_miss_rate::0      0.008151                       # miss rate for demand accesses
system.cpu00.icache.demand_miss_rate::1      no_value                       # miss rate for demand accesses
system.cpu00.icache.demand_miss_rate::total     no_value                       # miss rate for demand accesses
system.cpu00.icache.demand_misses::0           505648                       # number of demand (read+write) misses
system.cpu00.icache.demand_misses::1                0                       # number of demand (read+write) misses
system.cpu00.icache.demand_misses::total       505648                       # number of demand (read+write) misses
system.cpu00.icache.demand_mshr_hits                0                       # number of demand (read+write) MSHR hits
system.cpu00.icache.demand_mshr_miss_latency   6055590500                       # number of demand (read+write) MSHR miss cycles
system.cpu00.icache.demand_mshr_miss_rate::0     0.008151                       # mshr miss rate for demand accesses
system.cpu00.icache.demand_mshr_miss_rate::1          inf                       # mshr miss rate for demand accesses
system.cpu00.icache.demand_mshr_miss_rate::total          inf                       # mshr miss rate for demand accesses
system.cpu00.icache.demand_mshr_misses         505648                       # number of demand (read+write) MSHR misses
system.cpu00.icache.fast_writes                     0                       # number of fast writes performed
system.cpu00.icache.mshr_cap_events                 0                       # number of times MSHR cap was activated
system.cpu00.icache.no_allocate_misses              0                       # Number of misses that were no-allocate
system.cpu00.icache.occ_%::0                 0.997879                       # Average percentage of cache occupancy
system.cpu00.icache.occ_blocks::0          510.913862                       # Average occupied blocks per context
system.cpu00.icache.overall_accesses::0      62034542                       # number of overall (read+write) accesses
system.cpu00.icache.overall_accesses::1             0                       # number of overall (read+write) accesses
system.cpu00.icache.overall_accesses::total     62034542                       # number of overall (read+write) accesses
system.cpu00.icache.overall_avg_miss_latency::0 14980.484448                       # average overall miss latency
system.cpu00.icache.overall_avg_miss_latency::1          inf                       # average overall miss latency
system.cpu00.icache.overall_avg_miss_latency::total          inf                       # average overall miss latency
system.cpu00.icache.overall_avg_mshr_miss_latency 11975.901220                       # average overall mshr miss latency
system.cpu00.icache.overall_avg_mshr_uncacheable_latency     no_value                       # average overall mshr uncacheable latency
system.cpu00.icache.overall_hits::0          61528894                       # number of overall hits
system.cpu00.icache.overall_hits::1                 0                       # number of overall hits
system.cpu00.icache.overall_hits::total      61528894                       # number of overall hits
system.cpu00.icache.overall_miss_latency   7574852000                       # number of overall miss cycles
system.cpu00.icache.overall_miss_rate::0     0.008151                       # miss rate for overall accesses
system.cpu00.icache.overall_miss_rate::1     no_value                       # miss rate for overall accesses
system.cpu00.icache.overall_miss_rate::total     no_value                       # miss rate for overall accesses
system.cpu00.icache.overall_misses::0          505648                       # number of overall misses
system.cpu00.icache.overall_misses::1               0                       # number of overall misses
system.cpu00.icache.overall_misses::total       505648                       # number of overall misses
system.cpu00.icache.overall_mshr_hits               0                       # number of overall MSHR hits
system.cpu00.icache.overall_mshr_miss_latency   6055590500                       # number of overall MSHR miss cycles
system.cpu00.icache.overall_mshr_miss_rate::0     0.008151                       # mshr miss rate for overall accesses
system.cpu00.icache.overall_mshr_miss_rate::1          inf                       # mshr miss rate for overall accesses
system.cpu00.icache.overall_mshr_miss_rate::total          inf                       # mshr miss rate for overall accesses
system.cpu00.icache.overall_mshr_misses        505648                       # number of overall MSHR misses
system.cpu00.icache.overall_mshr_uncacheable_latency            0                       # number of overall MSHR uncacheable cycles
system.cpu00.icache.overall_mshr_uncacheable_misses            0                       # number of overall MSHR uncacheable misses
system.cpu00.icache.replacements               505134                       # number of replacements
system.cpu00.icache.sampled_refs               505134                       # Sample count of references to valid blocks.
system.cpu00.icache.soft_prefetch_mshr_full            0                       # number of mshr full events for SW prefetching instrutions
system.cpu00.icache.tagsinuse              510.913862                       # Cycle average of tags in use
system.cpu00.icache.total_refs               61412420                       # Total number of references to valid blocks.
system.cpu00.icache.warmup_cycle          24192609000                       # Cycle when the warmup percentage was hit.
system.cpu00.icache.writebacks                      0                       # number of writebacks
system.cpu00.idle_fraction                   0.948450                       # Percentage of idle cycles
system.cpu00.itb.data_accesses                      0                       # DTB accesses
system.cpu00.itb.data_acv                           0                       # DTB access violations
system.cpu00.itb.data_hits                          0                       # DTB hits
system.cpu00.itb.data_misses                        0                       # DTB misses
system.cpu00.itb.fetch_accesses               1537641                       # ITB accesses
system.cpu00.itb.fetch_acv                          0                       # ITB acv
system.cpu00.itb.fetch_hits                   1537617                       # ITB hits
system.cpu00.itb.fetch_misses                      24                       # ITB misses
system.cpu00.itb.read_accesses                      0                       # DTB read accesses
system.cpu00.itb.read_acv                           0                       # DTB read access violations
system.cpu00.itb.read_hits                          0                       # DTB read hits
system.cpu00.itb.read_misses                        0                       # DTB read misses
system.cpu00.itb.write_accesses                     0                       # DTB write accesses
system.cpu00.itb.write_acv                          0                       # DTB write access violations
system.cpu00.itb.write_hits                         0                       # DTB write hits
system.cpu00.itb.write_misses                       0                       # DTB write misses
system.cpu00.kern.callpal::cserve                   1      0.00%      0.00% # number of callpals executed
system.cpu00.kern.callpal::wripir                1859      1.33%      1.34% # number of callpals executed
system.cpu00.kern.callpal::wrmces                   1      0.00%      1.34% # number of callpals executed
system.cpu00.kern.callpal::wrfen                    1      0.00%      1.34% # number of callpals executed
system.cpu00.kern.callpal::wrvptptr                 1      0.00%      1.34% # number of callpals executed
system.cpu00.kern.callpal::swpctx                2049      1.47%      2.81% # number of callpals executed
system.cpu00.kern.callpal::tbi                      1      0.00%      2.81% # number of callpals executed
system.cpu00.kern.callpal::wrent                    7      0.01%      2.81% # number of callpals executed
system.cpu00.kern.callpal::swpipl              126687     90.96%     93.77% # number of callpals executed
system.cpu00.kern.callpal::rdps                  5206      3.74%     97.51% # number of callpals executed
system.cpu00.kern.callpal::wrkgp                    1      0.00%     97.51% # number of callpals executed
system.cpu00.kern.callpal::rdusp                    2      0.00%     97.51% # number of callpals executed
system.cpu00.kern.callpal::whami                    2      0.00%     97.51% # number of callpals executed
system.cpu00.kern.callpal::rti                   3457      2.48%    100.00% # number of callpals executed
system.cpu00.kern.callpal::callsys                  4      0.00%    100.00% # number of callpals executed
system.cpu00.kern.callpal::imb                      2      0.00%    100.00% # number of callpals executed
system.cpu00.kern.callpal::total               139281                       # number of callpals executed
system.cpu00.kern.inst.arm                          0                       # number of arm instructions executed
system.cpu00.kern.inst.hwrei                   142634                       # number of hwrei instructions executed
system.cpu00.kern.inst.quiesce                   7313                       # number of quiesce instructions executed
system.cpu00.kern.ipl_count::0                  51717     38.76%     38.76% # number of times we switched to this ipl
system.cpu00.kern.ipl_count::21                    14      0.01%     38.77% # number of times we switched to this ipl
system.cpu00.kern.ipl_count::22                  2439      1.83%     40.60% # number of times we switched to this ipl
system.cpu00.kern.ipl_count::30                   829      0.62%     41.22% # number of times we switched to this ipl
system.cpu00.kern.ipl_count::31                 78427     58.78%    100.00% # number of times we switched to this ipl
system.cpu00.kern.ipl_count::total             133426                       # number of times we switched to this ipl
system.cpu00.kern.ipl_good::0                   51536     48.84%     48.84% # number of times we switched to this ipl from a different ipl
system.cpu00.kern.ipl_good::21                     14      0.01%     48.85% # number of times we switched to this ipl from a different ipl
system.cpu00.kern.ipl_good::22                   2439      2.31%     51.16% # number of times we switched to this ipl from a different ipl
system.cpu00.kern.ipl_good::30                    829      0.79%     51.95% # number of times we switched to this ipl from a different ipl
system.cpu00.kern.ipl_good::31                  50708     48.05%    100.00% # number of times we switched to this ipl from a different ipl
system.cpu00.kern.ipl_good::total              105526                       # number of times we switched to this ipl from a different ipl
system.cpu00.kern.ipl_ticks::0           2348385551500     97.95%     97.95% # number of cycles we spent at this ipl
system.cpu00.kern.ipl_ticks::21               6750000      0.00%     97.95% # number of cycles we spent at this ipl
system.cpu00.kern.ipl_ticks::22             994092000      0.04%     97.99% # number of cycles we spent at this ipl
system.cpu00.kern.ipl_ticks::30             644984500      0.03%     98.02% # number of cycles we spent at this ipl
system.cpu00.kern.ipl_ticks::31           47433481000      1.98%    100.00% # number of cycles we spent at this ipl
system.cpu00.kern.ipl_ticks::total       2397464859000                       # number of cycles we spent at this ipl
system.cpu00.kern.ipl_used::0                0.996500                       # fraction of swpipl calls that actually changed the ipl
system.cpu00.kern.ipl_used::21                      1                       # fraction of swpipl calls that actually changed the ipl
system.cpu00.kern.ipl_used::22                      1                       # fraction of swpipl calls that actually changed the ipl
system.cpu00.kern.ipl_used::30                      1                       # fraction of swpipl calls that actually changed the ipl
system.cpu00.kern.ipl_used::31               0.646563                       # fraction of swpipl calls that actually changed the ipl
system.cpu00.kern.mode_good::kernel                 5                      
system.cpu00.kern.mode_good::user                   5                      
system.cpu00.kern.mode_good::idle                   0                      
system.cpu00.kern.mode_switch::kernel            5337                       # number of protection mode switches
system.cpu00.kern.mode_switch::user                 5                       # number of protection mode switches
system.cpu00.kern.mode_switch::idle                 0                       # number of protection mode switches
system.cpu00.kern.mode_switch_good::kernel     0.000937                       # fraction of useful protection mode switches
system.cpu00.kern.mode_switch_good::user            1                       # fraction of useful protection mode switches
system.cpu00.kern.mode_switch_good::idle     no_value                       # fraction of useful protection mode switches
system.cpu00.kern.mode_switch_good::total     no_value                       # fraction of useful protection mode switches
system.cpu00.kern.mode_ticks::kernel     2367987280000    100.00%    100.00% # number of ticks spent at the given mode
system.cpu00.kern.mode_ticks::user           16497000      0.00%    100.00% # number of ticks spent at the given mode
system.cpu00.kern.mode_ticks::idle                  0      0.00%    100.00% # number of ticks spent at the given mode
system.cpu00.kern.swap_context                   2050                       # number of times the context was actually changed
system.cpu00.kern.syscall::3                        1     33.33%     33.33% # number of syscalls executed
system.cpu00.kern.syscall::45                       1     33.33%     66.67% # number of syscalls executed
system.cpu00.kern.syscall::71                       1     33.33%    100.00% # number of syscalls executed
system.cpu00.kern.syscall::total                    3                       # number of syscalls executed
system.cpu00.not_idle_fraction               0.051550                       # Percentage of non-idle cycles
system.cpu00.numCycles                     4794929746                       # number of cpu cycles simulated
system.cpu00.num_insts                       62034496                       # Number of instructions executed
system.cpu00.num_refs                        15596939                       # Number of memory references
system.cpu01.dcache.LoadLockedReq_accesses::0        54112                       # number of LoadLockedReq accesses(hits+misses)
system.cpu01.dcache.LoadLockedReq_accesses::total        54112                       # number of LoadLockedReq accesses(hits+misses)
system.cpu01.dcache.LoadLockedReq_avg_miss_latency::0  7075.394361                       # average LoadLockedReq miss latency
system.cpu01.dcache.LoadLockedReq_avg_miss_latency::1          inf                       # average LoadLockedReq miss latency
system.cpu01.dcache.LoadLockedReq_avg_miss_latency::total          inf                       # average LoadLockedReq miss latency
system.cpu01.dcache.LoadLockedReq_avg_mshr_miss_latency  4075.394361                       # average LoadLockedReq mshr miss latency
system.cpu01.dcache.LoadLockedReq_hits::0        38010                       # number of LoadLockedReq hits
system.cpu01.dcache.LoadLockedReq_hits::total        38010                       # number of LoadLockedReq hits
system.cpu01.dcache.LoadLockedReq_miss_latency    113928000                       # number of LoadLockedReq miss cycles
system.cpu01.dcache.LoadLockedReq_miss_rate::0     0.297568                       # miss rate for LoadLockedReq accesses
system.cpu01.dcache.LoadLockedReq_misses::0        16102                       # number of LoadLockedReq misses
system.cpu01.dcache.LoadLockedReq_misses::total        16102                       # number of LoadLockedReq misses
system.cpu01.dcache.LoadLockedReq_mshr_miss_latency     65622000                       # number of LoadLockedReq MSHR miss cycles
system.cpu01.dcache.LoadLockedReq_mshr_miss_rate::0     0.297568                       # mshr miss rate for LoadLockedReq accesses
system.cpu01.dcache.LoadLockedReq_mshr_miss_rate::1          inf                       # mshr miss rate for LoadLockedReq accesses
system.cpu01.dcache.LoadLockedReq_mshr_miss_rate::total          inf                       # mshr miss rate for LoadLockedReq accesses
system.cpu01.dcache.LoadLockedReq_mshr_misses        16102                       # number of LoadLockedReq MSHR misses
system.cpu01.dcache.ReadReq_accesses::0       4638571                       # number of ReadReq accesses(hits+misses)
system.cpu01.dcache.ReadReq_accesses::total      4638571                       # number of ReadReq accesses(hits+misses)
system.cpu01.dcache.ReadReq_avg_miss_latency::0  8217.018986                       # average ReadReq miss latency
system.cpu01.dcache.ReadReq_avg_miss_latency::1          inf                       # average ReadReq miss latency
system.cpu01.dcache.ReadReq_avg_miss_latency::total          inf                       # average ReadReq miss latency
system.cpu01.dcache.ReadReq_avg_mshr_miss_latency  5217.018986                       # average ReadReq mshr miss latency
system.cpu01.dcache.ReadReq_avg_mshr_uncacheable_latency          inf                       # average ReadReq mshr uncacheable latency
system.cpu01.dcache.ReadReq_hits::0           4403557                       # number of ReadReq hits
system.cpu01.dcache.ReadReq_hits::total       4403557                       # number of ReadReq hits
system.cpu01.dcache.ReadReq_miss_latency   1931114500                       # number of ReadReq miss cycles
system.cpu01.dcache.ReadReq_miss_rate::0     0.050665                       # miss rate for ReadReq accesses
system.cpu01.dcache.ReadReq_misses::0          235014                       # number of ReadReq misses
system.cpu01.dcache.ReadReq_misses::total       235014                       # number of ReadReq misses
system.cpu01.dcache.ReadReq_mshr_miss_latency   1226072500                       # number of ReadReq MSHR miss cycles
system.cpu01.dcache.ReadReq_mshr_miss_rate::0     0.050665                       # mshr miss rate for ReadReq accesses
system.cpu01.dcache.ReadReq_mshr_miss_rate::1          inf                       # mshr miss rate for ReadReq accesses
system.cpu01.dcache.ReadReq_mshr_miss_rate::total          inf                       # mshr miss rate for ReadReq accesses
system.cpu01.dcache.ReadReq_mshr_misses        235014                       # number of ReadReq MSHR misses
system.cpu01.dcache.ReadReq_mshr_uncacheable_latency       524000                       # number of ReadReq MSHR uncacheable cycles
system.cpu01.dcache.StoreCondReq_accesses::0        50217                       # number of StoreCondReq accesses(hits+misses)
system.cpu01.dcache.StoreCondReq_accesses::total        50217                       # number of StoreCondReq accesses(hits+misses)
system.cpu01.dcache.StoreCondReq_avg_miss_latency::0 21570.259466                       # average StoreCondReq miss latency
system.cpu01.dcache.StoreCondReq_avg_miss_latency::1          inf                       # average StoreCondReq miss latency
system.cpu01.dcache.StoreCondReq_avg_miss_latency::total          inf                       # average StoreCondReq miss latency
system.cpu01.dcache.StoreCondReq_avg_mshr_miss_latency 18635.534877                       # average StoreCondReq mshr miss latency
system.cpu01.dcache.StoreCondReq_hits::0        23701                       # number of StoreCondReq hits
system.cpu01.dcache.StoreCondReq_hits::total        23701                       # number of StoreCondReq hits
system.cpu01.dcache.StoreCondReq_miss_latency    571957000                       # number of StoreCondReq miss cycles
system.cpu01.dcache.StoreCondReq_miss_rate::0     0.528028                       # miss rate for StoreCondReq accesses
system.cpu01.dcache.StoreCondReq_misses::0        26516                       # number of StoreCondReq misses
system.cpu01.dcache.StoreCondReq_misses::total        26516                       # number of StoreCondReq misses
system.cpu01.dcache.StoreCondReq_mshr_miss_latency    492649000                       # number of StoreCondReq MSHR miss cycles
system.cpu01.dcache.StoreCondReq_mshr_miss_rate::0     0.526435                       # mshr miss rate for StoreCondReq accesses
system.cpu01.dcache.StoreCondReq_mshr_miss_rate::1          inf                       # mshr miss rate for StoreCondReq accesses
system.cpu01.dcache.StoreCondReq_mshr_miss_rate::total          inf                       # mshr miss rate for StoreCondReq accesses
system.cpu01.dcache.StoreCondReq_mshr_misses        26436                       # number of StoreCondReq MSHR misses
system.cpu01.dcache.WriteReq_accesses::0      2416655                       # number of WriteReq accesses(hits+misses)
system.cpu01.dcache.WriteReq_accesses::total      2416655                       # number of WriteReq accesses(hits+misses)
system.cpu01.dcache.WriteReq_avg_miss_latency::0 44186.951417                       # average WriteReq miss latency
system.cpu01.dcache.WriteReq_avg_miss_latency::1          inf                       # average WriteReq miss latency
system.cpu01.dcache.WriteReq_avg_miss_latency::total          inf                       # average WriteReq miss latency
system.cpu01.dcache.WriteReq_avg_mshr_miss_latency 41186.951417                       # average WriteReq mshr miss latency
system.cpu01.dcache.WriteReq_avg_mshr_uncacheable_latency          inf                       # average WriteReq mshr uncacheable latency
system.cpu01.dcache.WriteReq_hits::0          2294864                       # number of WriteReq hits
system.cpu01.dcache.WriteReq_hits::total      2294864                       # number of WriteReq hits
system.cpu01.dcache.WriteReq_miss_latency   5381573000                       # number of WriteReq miss cycles
system.cpu01.dcache.WriteReq_miss_rate::0     0.050397                       # miss rate for WriteReq accesses
system.cpu01.dcache.WriteReq_misses::0         121791                       # number of WriteReq misses
system.cpu01.dcache.WriteReq_misses::total       121791                       # number of WriteReq misses
system.cpu01.dcache.WriteReq_mshr_miss_latency   5016200000                       # number of WriteReq MSHR miss cycles
system.cpu01.dcache.WriteReq_mshr_miss_rate::0     0.050397                       # mshr miss rate for WriteReq accesses
system.cpu01.dcache.WriteReq_mshr_miss_rate::1          inf                       # mshr miss rate for WriteReq accesses
system.cpu01.dcache.WriteReq_mshr_miss_rate::total          inf                       # mshr miss rate for WriteReq accesses
system.cpu01.dcache.WriteReq_mshr_misses       121791                       # number of WriteReq MSHR misses
system.cpu01.dcache.WriteReq_mshr_uncacheable_latency   1036623500                       # number of WriteReq MSHR uncacheable cycles
system.cpu01.dcache.avg_blocked_cycles::no_mshrs     no_value                       # average number of cycles each access was blocked
system.cpu01.dcache.avg_blocked_cycles::no_targets     no_value                       # average number of cycles each access was blocked
system.cpu01.dcache.avg_refs                28.981595                       # Average number of references to valid blocks.
system.cpu01.dcache.blocked::no_mshrs               0                       # number of cycles access was blocked
system.cpu01.dcache.blocked::no_targets             0                       # number of cycles access was blocked
system.cpu01.dcache.blocked_cycles::no_mshrs            0                       # number of cycles access was blocked
system.cpu01.dcache.blocked_cycles::no_targets            0                       # number of cycles access was blocked
system.cpu01.dcache.cache_copies                    0                       # number of cache copies performed
system.cpu01.dcache.demand_accesses::0        7055226                       # number of demand (read+write) accesses
system.cpu01.dcache.demand_accesses::1              0                       # number of demand (read+write) accesses
system.cpu01.dcache.demand_accesses::total      7055226                       # number of demand (read+write) accesses
system.cpu01.dcache.demand_avg_miss_latency::0 20494.913188                       # average overall miss latency
system.cpu01.dcache.demand_avg_miss_latency::1          inf                       # average overall miss latency
system.cpu01.dcache.demand_avg_miss_latency::total          inf                       # average overall miss latency
system.cpu01.dcache.demand_avg_mshr_miss_latency 17494.913188                       # average overall mshr miss latency
system.cpu01.dcache.demand_hits::0            6698421                       # number of demand (read+write) hits
system.cpu01.dcache.demand_hits::1                  0                       # number of demand (read+write) hits
system.cpu01.dcache.demand_hits::total        6698421                       # number of demand (read+write) hits
system.cpu01.dcache.demand_miss_latency    7312687500                       # number of demand (read+write) miss cycles
system.cpu01.dcache.demand_miss_rate::0      0.050573                       # miss rate for demand accesses
system.cpu01.dcache.demand_miss_rate::1      no_value                       # miss rate for demand accesses
system.cpu01.dcache.demand_miss_rate::total     no_value                       # miss rate for demand accesses
system.cpu01.dcache.demand_misses::0           356805                       # number of demand (read+write) misses
system.cpu01.dcache.demand_misses::1                0                       # number of demand (read+write) misses
system.cpu01.dcache.demand_misses::total       356805                       # number of demand (read+write) misses
system.cpu01.dcache.demand_mshr_hits                0                       # number of demand (read+write) MSHR hits
system.cpu01.dcache.demand_mshr_miss_latency   6242272500                       # number of demand (read+write) MSHR miss cycles
system.cpu01.dcache.demand_mshr_miss_rate::0     0.050573                       # mshr miss rate for demand accesses
system.cpu01.dcache.demand_mshr_miss_rate::1          inf                       # mshr miss rate for demand accesses
system.cpu01.dcache.demand_mshr_miss_rate::total          inf                       # mshr miss rate for demand accesses
system.cpu01.dcache.demand_mshr_misses         356805                       # number of demand (read+write) MSHR misses
system.cpu01.dcache.fast_writes                     0                       # number of fast writes performed
system.cpu01.dcache.mshr_cap_events                 0                       # number of times MSHR cap was activated
system.cpu01.dcache.no_allocate_misses              0                       # Number of misses that were no-allocate
system.cpu01.dcache.occ_%::0                 0.570046                       # Average percentage of cache occupancy
system.cpu01.dcache.occ_blocks::0          583.726679                       # Average occupied blocks per context
system.cpu01.dcache.overall_accesses::0       7055226                       # number of overall (read+write) accesses
system.cpu01.dcache.overall_accesses::1             0                       # number of overall (read+write) accesses
system.cpu01.dcache.overall_accesses::total      7055226                       # number of overall (read+write) accesses
system.cpu01.dcache.overall_avg_miss_latency::0 20494.913188                       # average overall miss latency
system.cpu01.dcache.overall_avg_miss_latency::1          inf                       # average overall miss latency
system.cpu01.dcache.overall_avg_miss_latency::total          inf                       # average overall miss latency
system.cpu01.dcache.overall_avg_mshr_miss_latency 17494.913188                       # average overall mshr miss latency
system.cpu01.dcache.overall_avg_mshr_uncacheable_latency          inf                       # average overall mshr uncacheable latency
system.cpu01.dcache.overall_hits::0           6698421                       # number of overall hits
system.cpu01.dcache.overall_hits::1                 0                       # number of overall hits
system.cpu01.dcache.overall_hits::total       6698421                       # number of overall hits
system.cpu01.dcache.overall_miss_latency   7312687500                       # number of overall miss cycles
system.cpu01.dcache.overall_miss_rate::0     0.050573                       # miss rate for overall accesses
system.cpu01.dcache.overall_miss_rate::1     no_value                       # miss rate for overall accesses
system.cpu01.dcache.overall_miss_rate::total     no_value                       # miss rate for overall accesses
system.cpu01.dcache.overall_misses::0          356805                       # number of overall misses
system.cpu01.dcache.overall_misses::1               0                       # number of overall misses
system.cpu01.dcache.overall_misses::total       356805                       # number of overall misses
system.cpu01.dcache.overall_mshr_hits               0                       # number of overall MSHR hits
system.cpu01.dcache.overall_mshr_miss_latency   6242272500                       # number of overall MSHR miss cycles
system.cpu01.dcache.overall_mshr_miss_rate::0     0.050573                       # mshr miss rate for overall accesses
system.cpu01.dcache.overall_mshr_miss_rate::1          inf                       # mshr miss rate for overall accesses
system.cpu01.dcache.overall_mshr_miss_rate::total          inf                       # mshr miss rate for overall accesses
system.cpu01.dcache.overall_mshr_misses        356805                       # number of overall MSHR misses
system.cpu01.dcache.overall_mshr_uncacheable_latency   1037147500                       # number of overall MSHR uncacheable cycles
system.cpu01.dcache.overall_mshr_uncacheable_misses            0                       # number of overall MSHR uncacheable misses
system.cpu01.dcache.replacements               218577                       # number of replacements
system.cpu01.dcache.sampled_refs               218577                       # Sample count of references to valid blocks.
system.cpu01.dcache.soft_prefetch_mshr_full            0                       # number of mshr full events for SW prefetching instrutions
system.cpu01.dcache.tagsinuse              583.726679                       # Cycle average of tags in use
system.cpu01.dcache.total_refs                6334710                       # Total number of references to valid blocks.
system.cpu01.dcache.warmup_cycle                    0                       # Cycle when the warmup percentage was hit.
system.cpu01.dcache.writebacks                  53998                       # number of writebacks
system.cpu01.dtb.data_accesses                      0                       # DTB accesses
system.cpu01.dtb.data_acv                           0                       # DTB access violations
system.cpu01.dtb.data_hits                    7139580                       # DTB hits
system.cpu01.dtb.data_misses                        0                       # DTB misses
system.cpu01.dtb.fetch_accesses                     0                       # ITB accesses
system.cpu01.dtb.fetch_acv                          0                       # ITB acv
system.cpu01.dtb.fetch_hits                         0                       # ITB hits
system.cpu01.dtb.fetch_misses                       0                       # ITB misses
system.cpu01.dtb.read_accesses                      0                       # DTB read accesses
system.cpu01.dtb.read_acv                           0                       # DTB read access violations
system.cpu01.dtb.read_hits                    4677023                       # DTB read hits
system.cpu01.dtb.read_misses                        0                       # DTB read misses
system.cpu01.dtb.write_accesses                     0                       # DTB write accesses
system.cpu01.dtb.write_acv                          0                       # DTB write access violations
system.cpu01.dtb.write_hits                   2462557                       # DTB write hits
system.cpu01.dtb.write_misses                       0                       # DTB write misses
system.cpu01.icache.ReadReq_accesses::0      23444724                       # number of ReadReq accesses(hits+misses)
system.cpu01.icache.ReadReq_accesses::total     23444724                       # number of ReadReq accesses(hits+misses)
system.cpu01.icache.ReadReq_avg_miss_latency::0 14423.661075                       # average ReadReq miss latency
system.cpu01.icache.ReadReq_avg_miss_latency::1          inf                       # average ReadReq miss latency
system.cpu01.icache.ReadReq_avg_miss_latency::total          inf                       # average ReadReq miss latency
system.cpu01.icache.ReadReq_avg_mshr_miss_latency 11421.993154                       # average ReadReq mshr miss latency
system.cpu01.icache.ReadReq_hits::0          23226788                       # number of ReadReq hits
system.cpu01.icache.ReadReq_hits::total      23226788                       # number of ReadReq hits
system.cpu01.icache.ReadReq_miss_latency   3143435000                       # number of ReadReq miss cycles
system.cpu01.icache.ReadReq_miss_rate::0     0.009296                       # miss rate for ReadReq accesses
system.cpu01.icache.ReadReq_misses::0          217936                       # number of ReadReq misses
system.cpu01.icache.ReadReq_misses::total       217936                       # number of ReadReq misses
system.cpu01.icache.ReadReq_mshr_miss_latency   2489263500                       # number of ReadReq MSHR miss cycles
system.cpu01.icache.ReadReq_mshr_miss_rate::0     0.009296                       # mshr miss rate for ReadReq accesses
system.cpu01.icache.ReadReq_mshr_miss_rate::1          inf                       # mshr miss rate for ReadReq accesses
system.cpu01.icache.ReadReq_mshr_miss_rate::total          inf                       # mshr miss rate for ReadReq accesses
system.cpu01.icache.ReadReq_mshr_misses        217936                       # number of ReadReq MSHR misses
system.cpu01.icache.avg_blocked_cycles::no_mshrs     no_value                       # average number of cycles each access was blocked
system.cpu01.icache.avg_blocked_cycles::no_targets     no_value                       # average number of cycles each access was blocked
system.cpu01.icache.avg_refs                71.178794                       # Average number of references to valid blocks.
system.cpu01.icache.blocked::no_mshrs               0                       # number of cycles access was blocked
system.cpu01.icache.blocked::no_targets             0                       # number of cycles access was blocked
system.cpu01.icache.blocked_cycles::no_mshrs            0                       # number of cycles access was blocked
system.cpu01.icache.blocked_cycles::no_targets            0                       # number of cycles access was blocked
system.cpu01.icache.cache_copies                    0                       # number of cache copies performed
system.cpu01.icache.demand_accesses::0       23444724                       # number of demand (read+write) accesses
system.cpu01.icache.demand_accesses::1              0                       # number of demand (read+write) accesses
system.cpu01.icache.demand_accesses::total     23444724                       # number of demand (read+write) accesses
system.cpu01.icache.demand_avg_miss_latency::0 14423.661075                       # average overall miss latency
system.cpu01.icache.demand_avg_miss_latency::1          inf                       # average overall miss latency
system.cpu01.icache.demand_avg_miss_latency::total          inf                       # average overall miss latency
system.cpu01.icache.demand_avg_mshr_miss_latency 11421.993154                       # average overall mshr miss latency
system.cpu01.icache.demand_hits::0           23226788                       # number of demand (read+write) hits
system.cpu01.icache.demand_hits::1                  0                       # number of demand (read+write) hits
system.cpu01.icache.demand_hits::total       23226788                       # number of demand (read+write) hits
system.cpu01.icache.demand_miss_latency    3143435000                       # number of demand (read+write) miss cycles
system.cpu01.icache.demand_miss_rate::0      0.009296                       # miss rate for demand accesses
system.cpu01.icache.demand_miss_rate::1      no_value                       # miss rate for demand accesses
system.cpu01.icache.demand_miss_rate::total     no_value                       # miss rate for demand accesses
system.cpu01.icache.demand_misses::0           217936                       # number of demand (read+write) misses
system.cpu01.icache.demand_misses::1                0                       # number of demand (read+write) misses
system.cpu01.icache.demand_misses::total       217936                       # number of demand (read+write) misses
system.cpu01.icache.demand_mshr_hits                0                       # number of demand (read+write) MSHR hits
system.cpu01.icache.demand_mshr_miss_latency   2489263500                       # number of demand (read+write) MSHR miss cycles
system.cpu01.icache.demand_mshr_miss_rate::0     0.009296                       # mshr miss rate for demand accesses
system.cpu01.icache.demand_mshr_miss_rate::1          inf                       # mshr miss rate for demand accesses
system.cpu01.icache.demand_mshr_miss_rate::total          inf                       # mshr miss rate for demand accesses
system.cpu01.icache.demand_mshr_misses         217936                       # number of demand (read+write) MSHR misses
system.cpu01.icache.fast_writes                     0                       # number of fast writes performed
system.cpu01.icache.mshr_cap_events                 0                       # number of times MSHR cap was activated
system.cpu01.icache.no_allocate_misses              0                       # Number of misses that were no-allocate
system.cpu01.icache.occ_%::0                 0.965143                       # Average percentage of cache occupancy
system.cpu01.icache.occ_blocks::0          494.153350                       # Average occupied blocks per context
system.cpu01.icache.overall_accesses::0      23444724                       # number of overall (read+write) accesses
system.cpu01.icache.overall_accesses::1             0                       # number of overall (read+write) accesses
system.cpu01.icache.overall_accesses::total     23444724                       # number of overall (read+write) accesses
system.cpu01.icache.overall_avg_miss_latency::0 14423.661075                       # average overall miss latency
system.cpu01.icache.overall_avg_miss_latency::1          inf                       # average overall miss latency
system.cpu01.icache.overall_avg_miss_latency::total          inf                       # average overall miss latency
system.cpu01.icache.overall_avg_mshr_miss_latency 11421.993154                       # average overall mshr miss latency
system.cpu01.icache.overall_avg_mshr_uncacheable_latency     no_value                       # average overall mshr uncacheable latency
system.cpu01.icache.overall_hits::0          23226788                       # number of overall hits
system.cpu01.icache.overall_hits::1                 0                       # number of overall hits
system.cpu01.icache.overall_hits::total      23226788                       # number of overall hits
system.cpu01.icache.overall_miss_latency   3143435000                       # number of overall miss cycles
system.cpu01.icache.overall_miss_rate::0     0.009296                       # miss rate for overall accesses
system.cpu01.icache.overall_miss_rate::1     no_value                       # miss rate for overall accesses
system.cpu01.icache.overall_miss_rate::total     no_value                       # miss rate for overall accesses
system.cpu01.icache.overall_misses::0          217936                       # number of overall misses
system.cpu01.icache.overall_misses::1               0                       # number of overall misses
system.cpu01.icache.overall_misses::total       217936                       # number of overall misses
system.cpu01.icache.overall_mshr_hits               0                       # number of overall MSHR hits
system.cpu01.icache.overall_mshr_miss_latency   2489263500                       # number of overall MSHR miss cycles
system.cpu01.icache.overall_mshr_miss_rate::0     0.009296                       # mshr miss rate for overall accesses
system.cpu01.icache.overall_mshr_miss_rate::1          inf                       # mshr miss rate for overall accesses
system.cpu01.icache.overall_mshr_miss_rate::total          inf                       # mshr miss rate for overall accesses
system.cpu01.icache.overall_mshr_misses        217936                       # number of overall MSHR misses
system.cpu01.icache.overall_mshr_uncacheable_latency            0                       # number of overall MSHR uncacheable cycles
system.cpu01.icache.overall_mshr_uncacheable_misses            0                       # number of overall MSHR uncacheable misses
system.cpu01.icache.replacements               217434                       # number of replacements
system.cpu01.icache.sampled_refs               217434                       # Sample count of references to valid blocks.
system.cpu01.icache.soft_prefetch_mshr_full            0                       # number of mshr full events for SW prefetching instrutions
system.cpu01.icache.tagsinuse              494.153350                       # Cycle average of tags in use
system.cpu01.icache.total_refs               15476690                       # Total number of references to valid blocks.
system.cpu01.icache.warmup_cycle                    0                       # Cycle when the warmup percentage was hit.
system.cpu01.icache.writebacks                      0                       # number of writebacks
system.cpu01.idle_fraction                   0.982409                       # Percentage of idle cycles
system.cpu01.itb.data_accesses                      0                       # DTB accesses
system.cpu01.itb.data_acv                           0                       # DTB access violations
system.cpu01.itb.data_hits                          0                       # DTB hits
system.cpu01.itb.data_misses                        0                       # DTB misses
system.cpu01.itb.fetch_accesses               1102890                       # ITB accesses
system.cpu01.itb.fetch_acv                          0                       # ITB acv
system.cpu01.itb.fetch_hits                   1102890                       # ITB hits
system.cpu01.itb.fetch_misses                       0                       # ITB misses
system.cpu01.itb.read_accesses                      0                       # DTB read accesses
system.cpu01.itb.read_acv                           0                       # DTB read access violations
system.cpu01.itb.read_hits                          0                       # DTB read hits
system.cpu01.itb.read_misses                        0                       # DTB read misses
system.cpu01.itb.write_accesses                     0                       # DTB write accesses
system.cpu01.itb.write_acv                          0                       # DTB write access violations
system.cpu01.itb.write_hits                         0                       # DTB write hits
system.cpu01.itb.write_misses                       0                       # DTB write misses
system.cpu01.kern.callpal::cserve                   1      0.00%      0.00% # number of callpals executed
system.cpu01.kern.callpal::wripir                1546      1.91%      1.92% # number of callpals executed
system.cpu01.kern.callpal::wrmces                   1      0.00%      1.92% # number of callpals executed
system.cpu01.kern.callpal::wrfen                    1      0.00%      1.92% # number of callpals executed
system.cpu01.kern.callpal::swpctx                3132      3.88%      5.80% # number of callpals executed
system.cpu01.kern.callpal::wrent                    7      0.01%      5.81% # number of callpals executed
system.cpu01.kern.callpal::swpipl               66314     82.13%     87.93% # number of callpals executed
system.cpu01.kern.callpal::rdps                  4862      6.02%     93.96% # number of callpals executed
system.cpu01.kern.callpal::wrkgp                    1      0.00%     93.96% # number of callpals executed
system.cpu01.kern.callpal::whami                    3      0.00%     93.96% # number of callpals executed
system.cpu01.kern.callpal::rti                   4876      6.04%    100.00% # number of callpals executed
system.cpu01.kern.callpal::rdunique                 1      0.00%    100.00% # number of callpals executed
system.cpu01.kern.callpal::total                80745                       # number of callpals executed
system.cpu01.kern.inst.arm                          0                       # number of arm instructions executed
system.cpu01.kern.inst.hwrei                    84819                       # number of hwrei instructions executed
system.cpu01.kern.inst.quiesce                   4157                       # number of quiesce instructions executed
system.cpu01.kern.ipl_count::0                  28276     37.57%     37.57% # number of times we switched to this ipl
system.cpu01.kern.ipl_count::22                  2431      3.23%     40.80% # number of times we switched to this ipl
system.cpu01.kern.ipl_count::30                  1641      2.18%     42.98% # number of times we switched to this ipl
system.cpu01.kern.ipl_count::31                 42915     57.02%    100.00% # number of times we switched to this ipl
system.cpu01.kern.ipl_count::total              75263                       # number of times we switched to this ipl
system.cpu01.kern.ipl_good::0                   27472     47.88%     47.88% # number of times we switched to this ipl from a different ipl
system.cpu01.kern.ipl_good::22                   2431      4.24%     52.12% # number of times we switched to this ipl from a different ipl
system.cpu01.kern.ipl_good::30                   1641      2.86%     54.98% # number of times we switched to this ipl from a different ipl
system.cpu01.kern.ipl_good::31                  25831     45.02%    100.00% # number of times we switched to this ipl from a different ipl
system.cpu01.kern.ipl_good::total               57375                       # number of times we switched to this ipl from a different ipl
system.cpu01.kern.ipl_ticks::0           2348464317500     97.96%     97.96% # number of cycles we spent at this ipl
system.cpu01.kern.ipl_ticks::22             981992500      0.04%     98.00% # number of cycles we spent at this ipl
system.cpu01.kern.ipl_ticks::30             996749000      0.04%     98.04% # number of cycles we spent at this ipl
system.cpu01.kern.ipl_ticks::31           47020568000      1.96%    100.00% # number of cycles we spent at this ipl
system.cpu01.kern.ipl_ticks::total       2397463627000                       # number of cycles we spent at this ipl
system.cpu01.kern.ipl_used::0                0.971566                       # fraction of swpipl calls that actually changed the ipl
system.cpu01.kern.ipl_used::22                      1                       # fraction of swpipl calls that actually changed the ipl
system.cpu01.kern.ipl_used::30                      1                       # fraction of swpipl calls that actually changed the ipl
system.cpu01.kern.ipl_used::31               0.601911                       # fraction of swpipl calls that actually changed the ipl
system.cpu01.kern.mode_good::kernel              1564                      
system.cpu01.kern.mode_good::user                   0                      
system.cpu01.kern.mode_good::idle                1564                      
system.cpu01.kern.mode_switch::kernel            1593                       # number of protection mode switches
system.cpu01.kern.mode_switch::user                 0                       # number of protection mode switches
system.cpu01.kern.mode_switch::idle              5614                       # number of protection mode switches
system.cpu01.kern.mode_switch_good::kernel     0.981795                       # fraction of useful protection mode switches
system.cpu01.kern.mode_switch_good::user     no_value                       # fraction of useful protection mode switches
system.cpu01.kern.mode_switch_good::idle     0.278589                       # fraction of useful protection mode switches
system.cpu01.kern.mode_switch_good::total     no_value                       # fraction of useful protection mode switches
system.cpu01.kern.mode_ticks::kernel      32217928000      1.37%      1.37% # number of ticks spent at the given mode
system.cpu01.kern.mode_ticks::user                  0      0.00%      1.37% # number of ticks spent at the given mode
system.cpu01.kern.mode_ticks::idle       2324810499000     98.63%    100.00% # number of ticks spent at the given mode
system.cpu01.kern.swap_context                   3133                       # number of times the context was actually changed
system.cpu01.not_idle_fraction               0.017591                       # Percentage of non-idle cycles
system.cpu01.numCycles                     4794927282                       # number of cpu cycles simulated
system.cpu01.num_insts                       23444724                       # Number of instructions executed
system.cpu01.num_refs                         7175081                       # Number of memory references
system.cpu02.dcache.LoadLockedReq_accesses::0       105272                       # number of LoadLockedReq accesses(hits+misses)
system.cpu02.dcache.LoadLockedReq_accesses::total       105272                       # number of LoadLockedReq accesses(hits+misses)
system.cpu02.dcache.LoadLockedReq_avg_miss_latency::0  8645.616486                       # average LoadLockedReq miss latency
system.cpu02.dcache.LoadLockedReq_avg_miss_latency::1          inf                       # average LoadLockedReq miss latency
system.cpu02.dcache.LoadLockedReq_avg_miss_latency::total          inf                       # average LoadLockedReq miss latency
system.cpu02.dcache.LoadLockedReq_avg_mshr_miss_latency  5645.616486                       # average LoadLockedReq mshr miss latency
system.cpu02.dcache.LoadLockedReq_hits::0        90957                       # number of LoadLockedReq hits
system.cpu02.dcache.LoadLockedReq_hits::total        90957                       # number of LoadLockedReq hits
system.cpu02.dcache.LoadLockedReq_miss_latency    123762000                       # number of LoadLockedReq miss cycles
system.cpu02.dcache.LoadLockedReq_miss_rate::0     0.135981                       # miss rate for LoadLockedReq accesses
system.cpu02.dcache.LoadLockedReq_misses::0        14315                       # number of LoadLockedReq misses
system.cpu02.dcache.LoadLockedReq_misses::total        14315                       # number of LoadLockedReq misses
system.cpu02.dcache.LoadLockedReq_mshr_miss_latency     80817000                       # number of LoadLockedReq MSHR miss cycles
system.cpu02.dcache.LoadLockedReq_mshr_miss_rate::0     0.135981                       # mshr miss rate for LoadLockedReq accesses
system.cpu02.dcache.LoadLockedReq_mshr_miss_rate::1          inf                       # mshr miss rate for LoadLockedReq accesses
system.cpu02.dcache.LoadLockedReq_mshr_miss_rate::total          inf                       # mshr miss rate for LoadLockedReq accesses
system.cpu02.dcache.LoadLockedReq_mshr_misses        14315                       # number of LoadLockedReq MSHR misses
system.cpu02.dcache.ReadReq_accesses::0       4734136                       # number of ReadReq accesses(hits+misses)
system.cpu02.dcache.ReadReq_accesses::total      4734136                       # number of ReadReq accesses(hits+misses)
system.cpu02.dcache.ReadReq_avg_miss_latency::0 13408.957561                       # average ReadReq miss latency
system.cpu02.dcache.ReadReq_avg_miss_latency::1          inf                       # average ReadReq miss latency
system.cpu02.dcache.ReadReq_avg_miss_latency::total          inf                       # average ReadReq miss latency
system.cpu02.dcache.ReadReq_avg_mshr_miss_latency 10408.881333                       # average ReadReq mshr miss latency
system.cpu02.dcache.ReadReq_avg_mshr_uncacheable_latency          inf                       # average ReadReq mshr uncacheable latency
system.cpu02.dcache.ReadReq_hits::0           4517682                       # number of ReadReq hits
system.cpu02.dcache.ReadReq_hits::total       4517682                       # number of ReadReq hits
system.cpu02.dcache.ReadReq_miss_latency   2902422500                       # number of ReadReq miss cycles
system.cpu02.dcache.ReadReq_miss_rate::0     0.045722                       # miss rate for ReadReq accesses
system.cpu02.dcache.ReadReq_misses::0          216454                       # number of ReadReq misses
system.cpu02.dcache.ReadReq_misses::total       216454                       # number of ReadReq misses
system.cpu02.dcache.ReadReq_mshr_miss_latency   2253044000                       # number of ReadReq MSHR miss cycles
system.cpu02.dcache.ReadReq_mshr_miss_rate::0     0.045722                       # mshr miss rate for ReadReq accesses
system.cpu02.dcache.ReadReq_mshr_miss_rate::1          inf                       # mshr miss rate for ReadReq accesses
system.cpu02.dcache.ReadReq_mshr_miss_rate::total          inf                       # mshr miss rate for ReadReq accesses
system.cpu02.dcache.ReadReq_mshr_misses        216454                       # number of ReadReq MSHR misses
system.cpu02.dcache.ReadReq_mshr_uncacheable_latency    379318000                       # number of ReadReq MSHR uncacheable cycles
system.cpu02.dcache.StoreCondReq_accesses::0        77593                       # number of StoreCondReq accesses(hits+misses)
system.cpu02.dcache.StoreCondReq_accesses::total        77593                       # number of StoreCondReq accesses(hits+misses)
system.cpu02.dcache.StoreCondReq_avg_miss_latency::0 24626.735551                       # average StoreCondReq miss latency
system.cpu02.dcache.StoreCondReq_avg_miss_latency::1          inf                       # average StoreCondReq miss latency
system.cpu02.dcache.StoreCondReq_avg_miss_latency::total          inf                       # average StoreCondReq miss latency
system.cpu02.dcache.StoreCondReq_avg_mshr_miss_latency 21698.510363                       # average StoreCondReq mshr miss latency
system.cpu02.dcache.StoreCondReq_hits::0        52817                       # number of StoreCondReq hits
system.cpu02.dcache.StoreCondReq_hits::total        52817                       # number of StoreCondReq hits
system.cpu02.dcache.StoreCondReq_miss_latency    610152000                       # number of StoreCondReq miss cycles
[...]
system.l2.occ_%::12                          0.002913                       # Average percentage of cache occupancy
system.l2.occ_%::13                          0.000957                       # Average percentage of cache occupancy
system.l2.occ_%::14                          0.007778                       # Average percentage of cache occupancy
system.l2.occ_%::15                          0.001350                       # Average percentage of cache occupancy
system.l2.occ_%::16                          0.374555                       # Average percentage of cache occupancy
system.l2.occ_blocks::0                    744.635984                       # Average occupied blocks per context
system.l2.occ_blocks::1                    228.565662                       # Average occupied blocks per context
system.l2.occ_blocks::2                   1962.979250                       # Average occupied blocks per context
system.l2.occ_blocks::3                    619.482153                       # Average occupied blocks per context
system.l2.occ_blocks::4                   1270.894281                       # Average occupied blocks per context
system.l2.occ_blocks::5                    393.918323                       # Average occupied blocks per context
system.l2.occ_blocks::6                    175.640757                       # Average occupied blocks per context
system.l2.occ_blocks::7                    146.144044                       # Average occupied blocks per context
system.l2.occ_blocks::8                     29.067450                       # Average occupied blocks per context
system.l2.occ_blocks::9                    160.529596                       # Average occupied blocks per context
system.l2.occ_blocks::10                    19.333327                       # Average occupied blocks per context
system.l2.occ_blocks::11                    85.869231                       # Average occupied blocks per context
system.l2.occ_blocks::12                    95.441858                       # Average occupied blocks per context
system.l2.occ_blocks::13                    31.363847                       # Average occupied blocks per context
system.l2.occ_blocks::14                   254.882655                       # Average occupied blocks per context
system.l2.occ_blocks::15                    44.222815                       # Average occupied blocks per context
system.l2.occ_blocks::16                 12273.432747                       # Average occupied blocks per context
system.l2.overall_accesses::0                    1649                       # number of overall (read+write) accesses
system.l2.overall_accesses::1                    1499                       # number of overall (read+write) accesses
system.l2.overall_accesses::2                   14742                       # number of overall (read+write) accesses
system.l2.overall_accesses::3                    8829                       # number of overall (read+write) accesses
system.l2.overall_accesses::4                   41369                       # number of overall (read+write) accesses
system.l2.overall_accesses::5                    3841                       # number of overall (read+write) accesses
system.l2.overall_accesses::6                    1834                       # number of overall (read+write) accesses
system.l2.overall_accesses::7                    1123                       # number of overall (read+write) accesses
system.l2.overall_accesses::8                    1122                       # number of overall (read+write) accesses
system.l2.overall_accesses::9                    1123                       # number of overall (read+write) accesses
system.l2.overall_accesses::10                   1226                       # number of overall (read+write) accesses
system.l2.overall_accesses::11                   1185                       # number of overall (read+write) accesses
system.l2.overall_accesses::12                   1087                       # number of overall (read+write) accesses
system.l2.overall_accesses::13                   1171                       # number of overall (read+write) accesses
system.l2.overall_accesses::14                   1111                       # number of overall (read+write) accesses
system.l2.overall_accesses::15                   1253                       # number of overall (read+write) accesses
system.l2.overall_accesses::16                      0                       # number of overall (read+write) accesses
system.l2.overall_accesses::total               84164                       # number of overall (read+write) accesses
system.l2.overall_avg_miss_latency::0    4946732.352941                       # average overall miss latency
system.l2.overall_avg_miss_latency::1    6569878.906250                       # average overall miss latency
system.l2.overall_avg_miss_latency::2    274638.961463                       # average overall miss latency
system.l2.overall_avg_miss_latency::3    553252.960526                       # average overall miss latency
system.l2.overall_avg_miss_latency::4    88796.209281                       # average overall miss latency
system.l2.overall_avg_miss_latency::5    1320164.050235                       # average overall miss latency
system.l2.overall_avg_miss_latency::6    3985518.957346                       # average overall miss latency
system.l2.overall_avg_miss_latency::7    7542103.139013                       # average overall miss latency
system.l2.overall_avg_miss_latency::8    7576076.576577                       # average overall miss latency
system.l2.overall_avg_miss_latency::9    7971037.914692                       # average overall miss latency
system.l2.overall_avg_miss_latency::10   7786523.148148                       # average overall miss latency
system.l2.overall_avg_miss_latency::11   7933438.679245                       # average overall miss latency
system.l2.overall_avg_miss_latency::12   8125067.632850                       # average overall miss latency
system.l2.overall_avg_miss_latency::13   7679858.447489                       # average overall miss latency
system.l2.overall_avg_miss_latency::14   8204336.585366                       # average overall miss latency
system.l2.overall_avg_miss_latency::15   6949954.545455                       # average overall miss latency
system.l2.overall_avg_miss_latency::16            inf                       # average overall miss latency
system.l2.overall_avg_miss_latency::total          inf                       # average overall miss latency
system.l2.overall_avg_mshr_miss_latency  40005.244050                       # average overall mshr miss latency
system.l2.overall_avg_mshr_uncacheable_latency          inf                       # average overall mshr uncacheable latency
system.l2.overall_hits::0                        1309                       # number of overall hits
system.l2.overall_hits::1                        1243                       # number of overall hits
system.l2.overall_hits::2                        8618                       # number of overall hits
system.l2.overall_hits::3                        5789                       # number of overall hits
system.l2.overall_hits::4                       22428                       # number of overall hits
system.l2.overall_hits::5                        2567                       # number of overall hits
system.l2.overall_hits::6                        1412                       # number of overall hits
system.l2.overall_hits::7                         900                       # number of overall hits
system.l2.overall_hits::8                         900                       # number of overall hits
system.l2.overall_hits::9                         912                       # number of overall hits
system.l2.overall_hits::10                       1010                       # number of overall hits
system.l2.overall_hits::11                        973                       # number of overall hits
system.l2.overall_hits::12                        880                       # number of overall hits
system.l2.overall_hits::13                        952                       # number of overall hits
system.l2.overall_hits::14                        906                       # number of overall hits
system.l2.overall_hits::15                       1011                       # number of overall hits
system.l2.overall_hits::16                          0                       # number of overall hits
system.l2.overall_hits::total                   51810                       # number of overall hits
system.l2.overall_miss_latency             1681889000                       # number of overall miss cycles
system.l2.overall_miss_rate::0               0.206186                       # miss rate for overall accesses
system.l2.overall_miss_rate::1               0.170781                       # miss rate for overall accesses
system.l2.overall_miss_rate::2               0.415412                       # miss rate for overall accesses
system.l2.overall_miss_rate::3               0.344320                       # miss rate for overall accesses
system.l2.overall_miss_rate::4               0.457855                       # miss rate for overall accesses
system.l2.overall_miss_rate::5               0.331684                       # miss rate for overall accesses
system.l2.overall_miss_rate::6               0.230098                       # miss rate for overall accesses
system.l2.overall_miss_rate::7               0.198575                       # miss rate for overall accesses
system.l2.overall_miss_rate::8               0.197861                       # miss rate for overall accesses
system.l2.overall_miss_rate::9               0.187890                       # miss rate for overall accesses
system.l2.overall_miss_rate::10              0.176183                       # miss rate for overall accesses
system.l2.overall_miss_rate::11              0.178903                       # miss rate for overall accesses
system.l2.overall_miss_rate::12              0.190432                       # miss rate for overall accesses
system.l2.overall_miss_rate::13              0.187020                       # miss rate for overall accesses
system.l2.overall_miss_rate::14              0.184518                       # miss rate for overall accesses
system.l2.overall_miss_rate::15              0.193136                       # miss rate for overall accesses
system.l2.overall_miss_rate::16              no_value                       # miss rate for overall accesses
system.l2.overall_miss_rate::total           no_value                       # miss rate for overall accesses
system.l2.overall_misses::0                       340                       # number of overall misses
system.l2.overall_misses::1                       256                       # number of overall misses
system.l2.overall_misses::2                      6124                       # number of overall misses
system.l2.overall_misses::3                      3040                       # number of overall misses
system.l2.overall_misses::4                     18941                       # number of overall misses
system.l2.overall_misses::5                      1274                       # number of overall misses
system.l2.overall_misses::6                       422                       # number of overall misses
system.l2.overall_misses::7                       223                       # number of overall misses
system.l2.overall_misses::8                       222                       # number of overall misses
system.l2.overall_misses::9                       211                       # number of overall misses
system.l2.overall_misses::10                      216                       # number of overall misses
system.l2.overall_misses::11                      212                       # number of overall misses
system.l2.overall_misses::12                      207                       # number of overall misses
system.l2.overall_misses::13                      219                       # number of overall misses
system.l2.overall_misses::14                      205                       # number of overall misses
system.l2.overall_misses::15                      242                       # number of overall misses
system.l2.overall_misses::16                        0                       # number of overall misses
system.l2.overall_misses::total                 32354                       # number of overall misses
system.l2.overall_mshr_hits                       127                       # number of overall MSHR hits
system.l2.overall_mshr_miss_latency        1289249000                       # number of overall MSHR miss cycles
system.l2.overall_mshr_miss_rate::0         19.543360                       # mshr miss rate for overall accesses
system.l2.overall_mshr_miss_rate::1         21.498999                       # mshr miss rate for overall accesses
system.l2.overall_mshr_miss_rate::2          2.186067                       # mshr miss rate for overall accesses
system.l2.overall_mshr_miss_rate::3          3.650130                       # mshr miss rate for overall accesses
system.l2.overall_mshr_miss_rate::4          0.779013                       # mshr miss rate for overall accesses
system.l2.overall_mshr_miss_rate::5          8.390263                       # mshr miss rate for overall accesses
system.l2.overall_mshr_miss_rate::6         17.571974                       # mshr miss rate for overall accesses
system.l2.overall_mshr_miss_rate::7         28.697240                       # mshr miss rate for overall accesses
system.l2.overall_mshr_miss_rate::8         28.722816                       # mshr miss rate for overall accesses
system.l2.overall_mshr_miss_rate::9         28.697240                       # mshr miss rate for overall accesses
system.l2.overall_mshr_miss_rate::10        26.286297                       # mshr miss rate for overall accesses
system.l2.overall_mshr_miss_rate::11        27.195781                       # mshr miss rate for overall accesses
system.l2.overall_mshr_miss_rate::12        29.647654                       # mshr miss rate for overall accesses
system.l2.overall_mshr_miss_rate::13        27.520922                       # mshr miss rate for overall accesses
system.l2.overall_mshr_miss_rate::14        29.007201                       # mshr miss rate for overall accesses
system.l2.overall_mshr_miss_rate::15        25.719872                       # mshr miss rate for overall accesses
system.l2.overall_mshr_miss_rate::16              inf                       # mshr miss rate for overall accesses
system.l2.overall_mshr_miss_rate::total           inf                       # mshr miss rate for overall accesses
system.l2.overall_mshr_misses                   32227                       # number of overall MSHR misses
system.l2.overall_mshr_uncacheable_latency    133747500                       # number of overall MSHR uncacheable cycles
system.l2.overall_mshr_uncacheable_misses            0                       # number of overall MSHR uncacheable misses
system.l2.replacements                          21873                       # number of replacements
system.l2.sampled_refs                          40989                       # Sample count of references to valid blocks.
system.l2.soft_prefetch_mshr_full                   0                       # number of mshr full events for SW prefetching instrutions
system.l2.tagsinuse                      18536.403981                       # Cycle average of tags in use
system.l2.total_refs                           571160                       # Total number of references to valid blocks.
system.l2.warmup_cycle                              0                       # Cycle when the warmup percentage was hit.
system.l2.writebacks                            13198                       # number of writebacks
system.tsunami.ethernet.coalescedRxDesc      no_value                       # average number of RxDesc's coalesced into each post
system.tsunami.ethernet.coalescedRxIdle      no_value                       # average number of RxIdle's coalesced into each post
system.tsunami.ethernet.coalescedRxOk        no_value                       # average number of RxOk's coalesced into each post
system.tsunami.ethernet.coalescedRxOrn       no_value                       # average number of RxOrn's coalesced into each post
system.tsunami.ethernet.coalescedSwi         no_value                       # average number of Swi's coalesced into each post
system.tsunami.ethernet.coalescedTotal       no_value                       # average number of interrupts coalesced into each post
system.tsunami.ethernet.coalescedTxDesc      no_value                       # average number of TxDesc's coalesced into each post
system.tsunami.ethernet.coalescedTxIdle      no_value                       # average number of TxIdle's coalesced into each post
system.tsunami.ethernet.coalescedTxOk        no_value                       # average number of TxOk's coalesced into each post
system.tsunami.ethernet.descDMAReads                0                       # Number of descriptors the device read w/ DMA
system.tsunami.ethernet.descDMAWrites               0                       # Number of descriptors the device wrote w/ DMA
system.tsunami.ethernet.descDmaReadBytes            0                       # number of descriptor bytes read w/ DMA
system.tsunami.ethernet.descDmaWriteBytes            0                       # number of descriptor bytes write w/ DMA
system.tsunami.ethernet.droppedPackets              0                       # number of packets dropped
system.tsunami.ethernet.postedInterrupts            0                       # number of posts to CPU
system.tsunami.ethernet.postedRxDesc                0                       # number of RxDesc interrupts posted to CPU
system.tsunami.ethernet.postedRxIdle                0                       # number of rxIdle interrupts posted to CPU
system.tsunami.ethernet.postedRxOk                  0                       # number of RxOk interrupts posted to CPU
system.tsunami.ethernet.postedRxOrn                 0                       # number of RxOrn posted to CPU
system.tsunami.ethernet.postedSwi                   0                       # number of software interrupts posted to CPU
system.tsunami.ethernet.postedTxDesc                0                       # number of TxDesc interrupts posted to CPU
system.tsunami.ethernet.postedTxIdle                0                       # number of TxIdle interrupts posted to CPU
system.tsunami.ethernet.postedTxOk                  0                       # number of TxOk interrupts posted to CPU
system.tsunami.ethernet.totalRxDesc                 0                       # total number of RxDesc written to ISR
system.tsunami.ethernet.totalRxIdle                 0                       # total number of RxIdle written to ISR
system.tsunami.ethernet.totalRxOk                   0                       # total number of RxOk written to ISR
system.tsunami.ethernet.totalRxOrn                  0                       # total number of RxOrn written to ISR
system.tsunami.ethernet.totalSwi                    0                       # total number of Swi written to ISR
system.tsunami.ethernet.totalTxDesc                 0                       # total number of TxDesc written to ISR
system.tsunami.ethernet.totalTxIdle                 0                       # total number of TxIdle written to ISR
system.tsunami.ethernet.totalTxOk                   0                       # total number of TxOk written to ISR

---------- End Simulation Statistics   ----------
